<?xml version="1.0"?>
<!-- generated on 2017-02-24 11:22:03.951000 by $Id: randomTrips.py 21557 2016-09-28 10:43:52Z luecken $
  options: -n clemson.net.xml -o clemson.trips.xml -p 0.7 <doubleminus>trip-attributes=departLane="best" departSpeed="max" departPos="random" type="myDist" <doubleminus>additional-file type.add.xml <doubleminus>edge-permission passenger
-->
<trips>
    <trip id="0" depart="0.00" from="-422062146#1" to="-12519015#2" departLane="best" departSpeed="max" departPos="random" type="myDist"/>
    <trip id="1" depart="0.70" from="33450159#7" to="12518315#0" departLane="best" departSpeed="max" departPos="random" type="myDist"/>
    <trip id="2" depart="1.40" from="12519385#0" to="-12517856#0" departLane="best" departSpeed="max" departPos="random" type="myDist"/>
    <trip id="3" depart="2.10" from="-12504740#3" to="-195316389#1" departLane="best" departSpeed="max" departPos="random" type="myDist"/>
    <trip id="4" depart="2.80" from="12505045#2" to="12522549#2-AddedOnRampEdge" departLane="best" departSpeed="max" departPos="random" type="myDist"/>
    <trip id="5" depart="3.50" from="-12510960#2" to="-12514813#1" departLane="best" departSpeed="max" departPos="random" type="myDist"/>
    <trip id="6" depart="4.20" from="-12504289#5" to="-422062150#5" departLane="best" departSpeed="max" departPos="random" type="myDist"/>
    <trip id="7" depart="4.90" from="-12117751#2" to="12516233#3" departLane="best" departSpeed="max" departPos="random" type="myDist"/>
    <trip id="8" depart="5.60" from="-47023220" to="-12524698" departLane="best" departSpeed="max" departPos="random" type="myDist"/>
    <trip id="9" depart="6.30" from="12515433" to="23968302#14" departLane="best" departSpeed="max" departPos="random" type="myDist"/>
    <trip id="10" depart="7.00" from="370814340#0" to="27583639#1" departLane="best" departSpeed="max" departPos="random" type="myDist"/>
    <trip id="11" depart="7.70" from="189090040#17" to="12525919" departLane="best" departSpeed="max" departPos="random" type="myDist"/>
    <trip id="12" depart="8.40" from="12515496#10" to="12518315#0" departLane="best" departSpeed="max" departPos="random" type="myDist"/>
    <trip id="13" depart="9.10" from="12504100#4" to="-26965605#2" departLane="best" departSpeed="max" departPos="random" type="myDist"/>
    <trip id="14" depart="9.80" from="-12503096#0" to="-195316373#1" departLane="best" departSpeed="max" departPos="random" type="myDist"/>
    <trip id="15" depart="10.50" from="12120166#2" to="-12505953" departLane="best" departSpeed="max" departPos="random" type="myDist"/>
    <trip id="16" depart="11.20" from="195316405" to="12526249#1" departLane="best" departSpeed="max" departPos="random" type="myDist"/>
    <trip id="17" depart="11.90" from="12525577#2" to="-12520167#1" departLane="best" departSpeed="max" departPos="random" type="myDist"/>
    <trip id="18" depart="12.60" from="-12508843#2" to="334781296#2" departLane="best" departSpeed="max" departPos="random" type="myDist"/>
    <trip id="19" depart="13.30" from="12523214#2" to="-12119535#2" departLane="best" departSpeed="max" departPos="random" type="myDist"/>
    <trip id="20" depart="14.00" from="12522474#2" to="12518735#1" departLane="best" departSpeed="max" departPos="random" type="myDist"/>
    <trip id="21" depart="14.70" from="27049779" to="-12508928#0" departLane="best" departSpeed="max" departPos="random" type="myDist"/>
    <trip id="22" depart="15.40" from="12504100#0" to="12506776#1" departLane="best" departSpeed="max" departPos="random" type="myDist"/>
    <trip id="23" depart="16.10" from="47023220" to="12117076#0" departLane="best" departSpeed="max" departPos="random" type="myDist"/>
    <trip id="24" depart="16.80" from="-12510955#6" to="195316379#1" departLane="best" departSpeed="max" departPos="random" type="myDist"/>
    <trip id="25" depart="17.50" from="-12497356#0" to="-12519385#0" departLane="best" departSpeed="max" departPos="random" type="myDist"/>
    <trip id="26" depart="18.20" from="-12526119" to="31019022#4" departLane="best" departSpeed="max" departPos="random" type="myDist"/>
    <trip id="27" depart="18.90" from="-8426493" to="-195316405" departLane="best" departSpeed="max" departPos="random" type="myDist"/>
    <trip id="28" depart="19.60" from="12510955#7" to="33450159#4" departLane="best" departSpeed="max" departPos="random" type="myDist"/>
    <trip id="29" depart="20.30" from="-12526444#1" to="12517184#0" departLane="best" departSpeed="max" departPos="random" type="myDist"/>
    <trip id="30" depart="21.00" from="-12517180" to="-12517856#0" departLane="best" departSpeed="max" departPos="random" type="myDist"/>
    <trip id="31" depart="21.70" from="12516233#0" to="28427256" departLane="best" departSpeed="max" departPos="random" type="myDist"/>
    <trip id="32" depart="22.40" from="56185965#1" to="-12516233#1" departLane="best" departSpeed="max" departPos="random" type="myDist"/>
    <trip id="33" depart="23.10" from="12522202#1" to="12518447" departLane="best" departSpeed="max" departPos="random" type="myDist"/>
    <trip id="34" depart="23.80" from="12506780#0" to="12518433#1" departLane="best" departSpeed="max" departPos="random" type="myDist"/>
    <trip id="35" depart="24.50" from="12516243#6" to="12516691#1" departLane="best" departSpeed="max" departPos="random" type="myDist"/>
    <trip id="36" depart="25.20" from="12503015#1" to="12524976#2" departLane="best" departSpeed="max" departPos="random" type="myDist"/>
    <trip id="37" depart="25.90" from="27565568#0" to="-56185956" departLane="best" departSpeed="max" departPos="random" type="myDist"/>
    <trip id="38" depart="26.60" from="12518719#10" to="-376047239#0" departLane="best" departSpeed="max" departPos="random" type="myDist"/>
    <trip id="39" depart="27.30" from="56185965#0" to="-334781295#12" departLane="best" departSpeed="max" departPos="random" type="myDist"/>
    <trip id="40" depart="28.00" from="12503422#2" to="-12120166#5" departLane="best" departSpeed="max" departPos="random" type="myDist"/>
    <trip id="41" depart="28.70" from="-12522263" to="79690694#2" departLane="best" departSpeed="max" departPos="random" type="myDist"/>
    <trip id="42" depart="29.40" from="12503197#2" to="12508531#0" departLane="best" departSpeed="max" departPos="random" type="myDist"/>
    <trip id="43" depart="30.10" from="12508843#1" to="-8426476#4" departLane="best" departSpeed="max" departPos="random" type="myDist"/>
    <trip id="44" depart="30.80" from="-12516683#1" to="29390518#0" departLane="best" departSpeed="max" departPos="random" type="myDist"/>
    <trip id="45" depart="31.50" from="-12101772#2" to="-12512987#2" departLane="best" departSpeed="max" departPos="random" type="myDist"/>
    <trip id="46" depart="32.20" from="-195316399#3" to="-12511455#0" departLane="best" departSpeed="max" departPos="random" type="myDist"/>
    <trip id="47" depart="32.90" from="-12514905" to="12504100#3" departLane="best" departSpeed="max" departPos="random" type="myDist"/>
    <trip id="48" depart="33.60" from="12525901#0" to="334781277#0" departLane="best" departSpeed="max" departPos="random" type="myDist"/>
    <trip id="49" depart="34.30" from="-28693981#3" to="-12522528#1" departLane="best" departSpeed="max" departPos="random" type="myDist"/>
    <trip id="50" depart="35.00" from="12513972#0" to="-12511455#5" departLane="best" departSpeed="max" departPos="random" type="myDist"/>
    <trip id="51" depart="35.70" from="144679972#0" to="27511685#0" departLane="best" departSpeed="max" departPos="random" type="myDist"/>
    <trip id="52" depart="36.40" from="12521939#3" to="-12511455#3" departLane="best" departSpeed="max" departPos="random" type="myDist"/>
    <trip id="53" depart="37.10" from="79690694#0" to="-12510097#0" departLane="best" departSpeed="max" departPos="random" type="myDist"/>
    <trip id="54" depart="37.80" from="-12525817" to="12516492#0" departLane="best" departSpeed="max" departPos="random" type="myDist"/>
    <trip id="55" depart="38.50" from="26939234#2" to="195316383#0" departLane="best" departSpeed="max" departPos="random" type="myDist"/>
    <trip id="56" depart="39.20" from="12510349#4" to="-12516243#1" departLane="best" departSpeed="max" departPos="random" type="myDist"/>
    <trip id="57" depart="39.90" from="12518692#0" to="-41409564#17" departLane="best" departSpeed="max" departPos="random" type="myDist"/>
    <trip id="58" depart="40.60" from="27039459#1" to="-12525041#0" departLane="best" departSpeed="max" departPos="random" type="myDist"/>
    <trip id="59" depart="41.30" from="-12525858#0" to="-12511455#2" departLane="best" departSpeed="max" departPos="random" type="myDist"/>
    <trip id="60" depart="42.00" from="12504100#6" to="189090046#6" departLane="best" departSpeed="max" departPos="random" type="myDist"/>
    <trip id="61" depart="42.70" from="-12097216#1" to="-12507596#0" departLane="best" departSpeed="max" departPos="random" type="myDist"/>
    <trip id="62" depart="43.40" from="-12503197#2" to="5163623#1" departLane="best" departSpeed="max" departPos="random" type="myDist"/>
    <trip id="63" depart="44.10" from="-12518765" to="-12511415#0" departLane="best" departSpeed="max" departPos="random" type="myDist"/>
    <trip id="64" depart="44.80" from="-334781295#8" to="12518084#7" departLane="best" departSpeed="max" departPos="random" type="myDist"/>
    <trip id="65" depart="45.50" from="32043901#3" to="12513650#0" departLane="best" departSpeed="max" departPos="random" type="myDist"/>
    <trip id="66" depart="46.20" from="-12506721#0" to="12517211#0" departLane="best" departSpeed="max" departPos="random" type="myDist"/>
    <trip id="67" depart="46.90" from="-12518084#6" to="12502517" departLane="best" departSpeed="max" departPos="random" type="myDist"/>
    <trip id="68" depart="47.60" from="-334781277#8" to="-334781277#8" departLane="best" departSpeed="max" departPos="random" type="myDist"/>
    <trip id="69" depart="48.30" from="370814340#7" to="12516323#1" departLane="best" departSpeed="max" departPos="random" type="myDist"/>
    <trip id="70" depart="49.00" from="-195316375" to="334781296#0" departLane="best" departSpeed="max" departPos="random" type="myDist"/>
    <trip id="71" depart="49.70" from="12511444#1" to="12500196" departLane="best" departSpeed="max" departPos="random" type="myDist"/>
    <trip id="72" depart="50.40" from="-12516691#8" to="12112103#1" departLane="best" departSpeed="max" departPos="random" type="myDist"/>
    <trip id="73" depart="51.10" from="-12508856" to="12516243#0" departLane="best" departSpeed="max" departPos="random" type="myDist"/>
    <trip id="74" depart="51.80" from="-12508343#3" to="27565568#0" departLane="best" departSpeed="max" departPos="random" type="myDist"/>
    <trip id="75" depart="52.50" from="192966774#0" to="12109181" departLane="best" departSpeed="max" departPos="random" type="myDist"/>
    <trip id="76" depart="53.20" from="27582617#11" to="-27039472#0" departLane="best" departSpeed="max" departPos="random" type="myDist"/>
    <trip id="77" depart="53.90" from="12510955#5" to="-12518433#2" departLane="best" departSpeed="max" departPos="random" type="myDist"/>
    <trip id="78" depart="54.60" from="-195316415#4" to="-12095544" departLane="best" departSpeed="max" departPos="random" type="myDist"/>
    <trip id="79" depart="55.30" from="12515496#2" to="-33450159#4" departLane="best" departSpeed="max" departPos="random" type="myDist"/>
    <trip id="80" depart="56.00" from="-12506809#1" to="189090046#1" departLane="best" departSpeed="max" departPos="random" type="myDist"/>
    <trip id="81" depart="56.70" from="47023220" to="12503422#1" departLane="best" departSpeed="max" departPos="random" type="myDist"/>
    <trip id="82" depart="57.40" from="12503015#1" to="-247427184" departLane="best" departSpeed="max" departPos="random" type="myDist"/>
    <trip id="83" depart="58.10" from="-12502892#1" to="12503096#1" departLane="best" departSpeed="max" departPos="random" type="myDist"/>
    <trip id="84" depart="58.80" from="195316375" to="12510955#8" departLane="best" departSpeed="max" departPos="random" type="myDist"/>
    <trip id="85" depart="59.50" from="-12520122#2" to="195316387" departLane="best" departSpeed="max" departPos="random" type="myDist"/>
    <trip id="86" depart="60.20" from="-12120016" to="-12518719#2" departLane="best" departSpeed="max" departPos="random" type="myDist"/>
    <trip id="87" depart="60.90" from="243508576#2" to="12522549#2" departLane="best" departSpeed="max" departPos="random" type="myDist"/>
    <trip id="88" depart="61.60" from="-12509610#3" to="12514813#0" departLane="best" departSpeed="max" departPos="random" type="myDist"/>
    <trip id="89" depart="62.30" from="12514598#12" to="12509452#0" departLane="best" departSpeed="max" departPos="random" type="myDist"/>
    <trip id="90" depart="63.00" from="27272673#3" to="-12511489#0" departLane="best" departSpeed="max" departPos="random" type="myDist"/>
    <trip id="91" depart="63.70" from="12509269#0" to="-376047239#2" departLane="best" departSpeed="max" departPos="random" type="myDist"/>
    <trip id="92" depart="64.40" from="32043901#1" to="13475399#0" departLane="best" departSpeed="max" departPos="random" type="myDist"/>
    <trip id="93" depart="65.10" from="12506595#1" to="-195316415#3" departLane="best" departSpeed="max" departPos="random" type="myDist"/>
    <trip id="94" depart="65.80" from="12507582" to="12518084#0" departLane="best" departSpeed="max" departPos="random" type="myDist"/>
    <trip id="95" depart="66.50" from="-104796147#1" to="41409564#10" departLane="best" departSpeed="max" departPos="random" type="myDist"/>
    <trip id="96" depart="67.20" from="-12503197#1" to="-12510800#1" departLane="best" departSpeed="max" departPos="random" type="myDist"/>
    <trip id="97" depart="67.90" from="-12525724#1" to="12514598#1" departLane="best" departSpeed="max" departPos="random" type="myDist"/>
    <trip id="98" depart="68.60" from="12522549#2-AddedOnRampEdge" to="-12525041#0" departLane="best" departSpeed="max" departPos="random" type="myDist"/>
    <trip id="99" depart="69.30" from="12514822#0" to="56185965#1" departLane="best" departSpeed="max" departPos="random" type="myDist"/>
    <trip id="100" depart="70.00" from="12510955#5" to="12503364#1" departLane="best" departSpeed="max" departPos="random" type="myDist"/>
    <trip id="101" depart="70.70" from="12504283#1" to="12525858#1" departLane="best" departSpeed="max" departPos="random" type="myDist"/>
    <trip id="102" depart="71.40" from="-376047239#3" to="33450159#8" departLane="best" departSpeed="max" departPos="random" type="myDist"/>
    <trip id="103" depart="72.10" from="12506833#0" to="-12504992" departLane="best" departSpeed="max" departPos="random" type="myDist"/>
    <trip id="104" depart="72.80" from="13475393#2" to="12518719#8" departLane="best" departSpeed="max" departPos="random" type="myDist"/>
    <trip id="105" depart="73.50" from="-24018678" to="12515444" departLane="best" departSpeed="max" departPos="random" type="myDist"/>
    <trip id="106" depart="74.20" from="12523214#0" to="12505304#0" departLane="best" departSpeed="max" departPos="random" type="myDist"/>
    <trip id="107" depart="74.90" from="195316377" to="-12505016#3" departLane="best" departSpeed="max" departPos="random" type="myDist"/>
    <trip id="108" depart="75.60" from="12503751" to="-195316416#0" departLane="best" departSpeed="max" departPos="random" type="myDist"/>
    <trip id="109" depart="76.30" from="12514598#2" to="-12506776#1" departLane="best" departSpeed="max" departPos="random" type="myDist"/>
    <trip id="110" depart="77.00" from="334781295#0" to="-195316375" departLane="best" departSpeed="max" departPos="random" type="myDist"/>
    <trip id="111" depart="77.70" from="-12524698" to="195316411#3" departLane="best" departSpeed="max" departPos="random" type="myDist"/>
    <trip id="112" depart="78.40" from="12508929#0" to="-12504289#4" departLane="best" departSpeed="max" departPos="random" type="myDist"/>
    <trip id="113" depart="79.10" from="-28151997#0" to="474204622#0" departLane="best" departSpeed="max" departPos="random" type="myDist"/>
    <trip id="114" depart="79.80" from="12525020#2" to="19801912#1" departLane="best" departSpeed="max" departPos="random" type="myDist"/>
    <trip id="115" depart="80.50" from="-12508343#3" to="-12493673#5" departLane="best" departSpeed="max" departPos="random" type="myDist"/>
    <trip id="116" depart="81.20" from="-12505454" to="195316379#3" departLane="best" departSpeed="max" departPos="random" type="myDist"/>
    <trip id="117" depart="81.90" from="12508929#3" to="12516771" departLane="best" departSpeed="max" departPos="random" type="myDist"/>
    <trip id="118" depart="82.60" from="-28693981#0" to="-12510960#0" departLane="best" departSpeed="max" departPos="random" type="myDist"/>
    <trip id="119" depart="83.30" from="-12509271" to="12524429" departLane="best" departSpeed="max" departPos="random" type="myDist"/>
    <trip id="120" depart="84.00" from="-334781277#8" to="12526249#2" departLane="best" departSpeed="max" departPos="random" type="myDist"/>
    <trip id="121" depart="84.70" from="12523214#1" to="-12508843#2" departLane="best" departSpeed="max" departPos="random" type="myDist"/>
    <trip id="122" depart="85.40" from="-12506776#0" to="12508843#1" departLane="best" departSpeed="max" departPos="random" type="myDist"/>
    <trip id="123" depart="86.10" from="12510850" to="12518084#0" departLane="best" departSpeed="max" departPos="random" type="myDist"/>
    <trip id="124" depart="86.80" from="-12104516" to="-12503230" departLane="best" departSpeed="max" departPos="random" type="myDist"/>
    <trip id="125" depart="87.50" from="12514813#27" to="-12514598#10" departLane="best" departSpeed="max" departPos="random" type="myDist"/>
    <trip id="126" depart="88.20" from="-12509423" to="-12504289#4" departLane="best" departSpeed="max" departPos="random" type="myDist"/>
    <trip id="127" depart="88.90" from="-12509290#0" to="12503049#1" departLane="best" departSpeed="max" departPos="random" type="myDist"/>
    <trip id="128" depart="89.60" from="-12510241#1" to="12097119#1" departLane="best" departSpeed="max" departPos="random" type="myDist"/>
    <trip id="129" depart="90.30" from="12516236" to="12511745#0" departLane="best" departSpeed="max" departPos="random" type="myDist"/>
    <trip id="130" depart="91.00" from="12507524#1" to="-12504938#3" departLane="best" departSpeed="max" departPos="random" type="myDist"/>
    <trip id="131" depart="91.70" from="12514459" to="189090039#4" departLane="best" departSpeed="max" departPos="random" type="myDist"/>
    <trip id="132" depart="92.40" from="189090040#17" to="-12516497#2" departLane="best" departSpeed="max" departPos="random" type="myDist"/>
    <trip id="133" depart="93.10" from="12521939#0" to="-12504100#1" departLane="best" departSpeed="max" departPos="random" type="myDist"/>
    <trip id="134" depart="93.80" from="-195316415#3" to="12517176#1" departLane="best" departSpeed="max" departPos="random" type="myDist"/>
    <trip id="135" depart="94.50" from="-12525858#1" to="12507596#3" departLane="best" departSpeed="max" departPos="random" type="myDist"/>
    <trip id="136" depart="95.20" from="26965605#0" to="-12504100#6" departLane="best" departSpeed="max" departPos="random" type="myDist"/>
    <trip id="137" depart="95.90" from="-41409564#18" to="12518719#3" departLane="best" departSpeed="max" departPos="random" type="myDist"/>
    <trip id="138" depart="96.60" from="12511455#5" to="-12505012#2" departLane="best" departSpeed="max" departPos="random" type="myDist"/>
    <trip id="139" depart="97.30" from="12517148#1" to="-334750679#1" departLane="best" departSpeed="max" departPos="random" type="myDist"/>
    <trip id="140" depart="98.00" from="-12518433#1" to="-12509961#0" departLane="best" departSpeed="max" departPos="random" type="myDist"/>
    <trip id="141" depart="98.70" from="189090039#1" to="27049774#0" departLane="best" departSpeed="max" departPos="random" type="myDist"/>
    <trip id="142" depart="99.40" from="-12517426#5" to="12523142#4" departLane="best" departSpeed="max" departPos="random" type="myDist"/>
    <trip id="143" depart="100.10" from="12117076#1" to="56185938#0" departLane="best" departSpeed="max" departPos="random" type="myDist"/>
    <trip id="144" depart="100.80" from="-12518004" to="-12526444#0" departLane="best" departSpeed="max" departPos="random" type="myDist"/>
    <trip id="145" depart="101.50" from="12510955#0" to="12510100" departLane="best" departSpeed="max" departPos="random" type="myDist"/>
    <trip id="146" depart="102.20" from="-12515417" to="-12519385#0" departLane="best" departSpeed="max" departPos="random" type="myDist"/>
    <trip id="147" depart="102.90" from="12505191#1" to="29390525" departLane="best" departSpeed="max" departPos="random" type="myDist"/>
    <trip id="148" depart="103.60" from="27582617#11" to="12520485#0" departLane="best" departSpeed="max" departPos="random" type="myDist"/>
    <trip id="149" depart="104.30" from="-12517856#1" to="12525020#2" departLane="best" departSpeed="max" departPos="random" type="myDist"/>
    <trip id="150" depart="105.00" from="12518887#0" to="31019022#8" departLane="best" departSpeed="max" departPos="random" type="myDist"/>
    <trip id="151" depart="105.70" from="-12106864" to="12505012#0" departLane="best" departSpeed="max" departPos="random" type="myDist"/>
    <trip id="152" depart="106.40" from="12497693#1" to="-41409564#16" departLane="best" departSpeed="max" departPos="random" type="myDist"/>
    <trip id="153" depart="107.10" from="-195316373#1" to="12493673#10" departLane="best" departSpeed="max" departPos="random" type="myDist"/>
    <trip id="154" depart="107.80" from="-8426482#0" to="12518887#1" departLane="best" departSpeed="max" departPos="random" type="myDist"/>
    <trip id="155" depart="108.50" from="-12514930#0" to="12518562#0" departLane="best" departSpeed="max" departPos="random" type="myDist"/>
    <trip id="156" depart="109.20" from="12500163#1" to="-12505016#0" departLane="best" departSpeed="max" departPos="random" type="myDist"/>
    <trip id="157" depart="109.90" from="-12508816" to="195316417#2" departLane="best" departSpeed="max" departPos="random" type="myDist"/>
    <trip id="158" depart="110.60" from="12518148#0" to="12514738#1" departLane="best" departSpeed="max" departPos="random" type="myDist"/>
    <trip id="159" depart="111.30" from="-12517602#2" to="12518562#0" departLane="best" departSpeed="max" departPos="random" type="myDist"/>
    <trip id="160" depart="112.00" from="-12101772#0" to="422062147" departLane="best" departSpeed="max" departPos="random" type="myDist"/>
    <trip id="161" depart="112.70" from="12506142#1" to="12500163#0" departLane="best" departSpeed="max" departPos="random" type="myDist"/>
    <trip id="162" depart="113.40" from="-12518945" to="-195316401" departLane="best" departSpeed="max" departPos="random" type="myDist"/>
    <trip id="163" depart="114.10" from="-12113391" to="12515987#0" departLane="best" departSpeed="max" departPos="random" type="myDist"/>
    <trip id="164" depart="114.80" from="-12515496#6" to="12117076#0" departLane="best" departSpeed="max" departPos="random" type="myDist"/>
    <trip id="165" depart="115.50" from="-27049802#5" to="12526444#7" departLane="best" departSpeed="max" departPos="random" type="myDist"/>
    <trip id="166" depart="116.20" from="12497358" to="-12101772#2" departLane="best" departSpeed="max" departPos="random" type="myDist"/>
    <trip id="167" depart="116.90" from="-12510349#4" to="189090046#3" departLane="best" departSpeed="max" departPos="random" type="myDist"/>
    <trip id="168" depart="117.60" from="12514930#1" to="-12505817#5" departLane="best" departSpeed="max" departPos="random" type="myDist"/>
    <trip id="169" depart="118.30" from="334781297" to="-12518898#1" departLane="best" departSpeed="max" departPos="random" type="myDist"/>
    <trip id="170" depart="119.00" from="-12514598#9" to="-12499742#4" departLane="best" departSpeed="max" departPos="random" type="myDist"/>
    <trip id="171" depart="119.70" from="-12518084#4" to="12516691#9" departLane="best" departSpeed="max" departPos="random" type="myDist"/>
    <trip id="172" depart="120.40" from="-41409564#16" to="12514316#1" departLane="best" departSpeed="max" departPos="random" type="myDist"/>
    <trip id="173" depart="121.10" from="-473901198#0" to="12517214#0" departLane="best" departSpeed="max" departPos="random" type="myDist"/>
    <trip id="174" depart="121.80" from="-12506929" to="12516243#0" departLane="best" departSpeed="max" departPos="random" type="myDist"/>
    <trip id="175" depart="122.50" from="195316383#0" to="-247429688#0" departLane="best" departSpeed="max" departPos="random" type="myDist"/>
    <trip id="176" depart="123.20" from="12504733" to="189090046#6-AddedOnRampEdge" departLane="best" departSpeed="max" departPos="random" type="myDist"/>
    <trip id="177" depart="123.90" from="-12504740#4" to="-12506833#1" departLane="best" departSpeed="max" departPos="random" type="myDist"/>
    <trip id="178" depart="124.60" from="-376047237#0" to="-12505454" departLane="best" departSpeed="max" departPos="random" type="myDist"/>
    <trip id="179" depart="125.30" from="189090046#2-AddedOffRampEdge" to="-189090040#16" departLane="best" departSpeed="max" departPos="random" type="myDist"/>
    <trip id="180" depart="126.00" from="12500145" to="33450159#5" departLane="best" departSpeed="max" departPos="random" type="myDist"/>
    <trip id="181" depart="126.70" from="422062146#1" to="-12515921" departLane="best" departSpeed="max" departPos="random" type="myDist"/>
    <trip id="182" depart="127.40" from="12509268#1" to="-12518433#4" departLane="best" departSpeed="max" departPos="random" type="myDist"/>
    <trip id="183" depart="128.10" from="422062164#1" to="12508531#3" departLane="best" departSpeed="max" departPos="random" type="myDist"/>
    <trip id="184" depart="128.80" from="-12508343#2" to="12509293" departLane="best" departSpeed="max" departPos="random" type="myDist"/>
    <trip id="185" depart="129.50" from="-56185956" to="422062161#2" departLane="best" departSpeed="max" departPos="random" type="myDist"/>
    <trip id="186" depart="130.20" from="-12514864#1" to="-12513972#0" departLane="best" departSpeed="max" departPos="random" type="myDist"/>
    <trip id="187" depart="130.90" from="12523641" to="-12097216#1" departLane="best" departSpeed="max" departPos="random" type="myDist"/>
    <trip id="188" depart="131.60" from="-12507944#1" to="-12521280#1" departLane="best" departSpeed="max" departPos="random" type="myDist"/>
    <trip id="189" depart="132.30" from="12511450" to="-12505016#0" departLane="best" departSpeed="max" departPos="random" type="myDist"/>
    <trip id="190" depart="133.00" from="-12506015" to="-12504100#1" departLane="best" departSpeed="max" departPos="random" type="myDist"/>
    <trip id="191" depart="133.70" from="12524991#0" to="12518219" departLane="best" departSpeed="max" departPos="random" type="myDist"/>
    <trip id="192" depart="134.40" from="12515496#6" to="32043901#1" departLane="best" departSpeed="max" departPos="random" type="myDist"/>
    <trip id="193" depart="135.10" from="12520593" to="12506643#0" departLane="best" departSpeed="max" departPos="random" type="myDist"/>
    <trip id="194" depart="135.80" from="189090046#1" to="27603088#2" departLane="best" departSpeed="max" departPos="random" type="myDist"/>
    <trip id="195" depart="136.50" from="12521608" to="189090040#17" departLane="best" departSpeed="max" departPos="random" type="myDist"/>
    <trip id="196" depart="137.20" from="195316380#6" to="-12504100#7" departLane="best" departSpeed="max" departPos="random" type="myDist"/>
    <trip id="197" depart="137.90" from="-12505305#0" to="12505191#2" departLane="best" departSpeed="max" departPos="random" type="myDist"/>
    <trip id="198" depart="138.60" from="12507596#5" to="-12504283#1" departLane="best" departSpeed="max" departPos="random" type="myDist"/>
    <trip id="199" depart="139.30" from="12526243" to="12510190" departLane="best" departSpeed="max" departPos="random" type="myDist"/>
    <trip id="200" depart="140.00" from="-12503205#0" to="23968302#2" departLane="best" departSpeed="max" departPos="random" type="myDist"/>
    <trip id="201" depart="140.70" from="27272673#0" to="12509660" departLane="best" departSpeed="max" departPos="random" type="myDist"/>
    <trip id="202" depart="141.40" from="-12505400" to="-189090033#1" departLane="best" departSpeed="max" departPos="random" type="myDist"/>
    <trip id="203" depart="142.10" from="12521345#1" to="-12520122#0" departLane="best" departSpeed="max" departPos="random" type="myDist"/>
    <trip id="204" depart="142.80" from="12503227#1" to="41409564#3" departLane="best" departSpeed="max" departPos="random" type="myDist"/>
    <trip id="205" depart="143.50" from="-12516691#8" to="12501178" departLane="best" departSpeed="max" departPos="random" type="myDist"/>
    <trip id="206" depart="144.20" from="56185965#1" to="-12510207#1" departLane="best" departSpeed="max" departPos="random" type="myDist"/>
    <trip id="207" depart="144.90" from="12508531#3" to="-12518719#2" departLane="best" departSpeed="max" departPos="random" type="myDist"/>
    <trip id="208" depart="145.60" from="12517375#9" to="12515785#3" departLane="best" departSpeed="max" departPos="random" type="myDist"/>
    <trip id="209" depart="146.30" from="12525402#0" to="-12518719#2" departLane="best" departSpeed="max" departPos="random" type="myDist"/>
    <trip id="210" depart="147.00" from="-12506721#3" to="-41409564#9" departLane="best" departSpeed="max" departPos="random" type="myDist"/>
    <trip id="211" depart="147.70" from="-12515414#0" to="-12518692#0" departLane="best" departSpeed="max" departPos="random" type="myDist"/>