<?xml version="1.0" encoding="UTF-8"?>

<!-- generated on 02/24/17 11:22:19 by SUMO duarouter Version 0.28.0
<?xml version="1.0" encoding="UTF-8"?>

<configuration xmlns:xsi="http://www.w3.org/2001/XMLSchema-instance" xsi:noNamespaceSchemaLocation="http://sumo.dlr.de/xsd/duarouterConfiguration.xsd">

    <input>
        <net-file value="clemson.net.xml"/>
        <additional-files value="type.add.xml"/>
        <trip-files value="clemson.trips.xml"/>
    </input>

    <output>
        <output-file value="clemson.rou.xml"/>
    </output>

    <processing>
        <ignore-errors value="true"/>
        <remove-loops value="true"/>
        <repair value="true"/>
        <repair.from value="true"/>
        <repair.to value="true"/>
    </processing>

</configuration>
-->

<routes xmlns:xsi="http://www.w3.org/2001/XMLSchema-instance" xsi:noNamespaceSchemaLocation="http://sumo.dlr.de/xsd/routes_file.xsd">
    <vType id="car" maxSpeed="40.00" probability="0.90" vClass="passenger"/>
    <vehicle id="0" type="car" depart="0.00" departLane="best" departPos="random" departSpeed="max">
        <route edges="-422062146#1 -195316397#5 -195316397#2 195316399#4 -195316389#2 -195316389#1 -195316389#0 -12504100#7 -12504100#6 -12504100#5 -12504100#4 12515496#0 12515496#1 12515496#2 12515496#3 12515496#4 12515496#5 12515496#6 12515496#7 12516243#0 -12519015#2"/>
    </vehicle>
    <vehicle id="1" type="car" depart="0.70" departLane="best" departPos="random" departSpeed="max">
        <route edges="33450159#7 33450159#8 -334781295#15 -334781295#14 -334781295#13 -334781295#12 -334781295#11 -334781295#10 -334781295#8 -334781295#3 -334781295#2 -334781295#0 -27607883 -12504783#1 -12504783#0 -27603088#6 -27603088#2 -27603088#1 -27603088#0 4526699#1 4526699#2-AddedOnRampEdge 4526699#2 473901198#0 473901198#1 473901198#2 12514598#0 12514598#1 12514598#2 12514598#3 12514598#4 12514598#5 12514598#6 -12506643#1 -12518562#1 12518315#0"/>
    </vehicle>
    <vehicle id="2" type="car" depart="1.40" departLane="best" departPos="random" departSpeed="max">
        <route edges="12502517 12508343#5 12508343#6 12523142#4 12515496#4 12515496#5 12515496#6 12515496#7 12516243#0 12516243#1 12516243#2 12516243#3 -12520158 -12517856#1 -12517856#0"/>
    </vehicle>
    <vehicle id="3" type="car" depart="2.10" departLane="best" departPos="random" departSpeed="max">
        <route edges="-12504740#3 195316379#3 195316379#5 195316422#2 195316378#0 195316378#1 195316378#3 -12515496#8 -12515496#7 -12515496#6 -12515496#5 -12515496#4 -12515496#3 -12515496#2 -12515496#1 -12515496#0 12504100#4 12504100#5 12504100#6 12504100#7 195316389#0 -195316415#3"/>
    </vehicle>
    <vehicle id="4" type="car" depart="2.80" departLane="best" departPos="random" departSpeed="max">
        <route edges="12505045#2 12505045#3 12505045#4 -12526444#3 -12526444#2 -12526444#1 -12526444#0 -12514930#1 12505817#3 -12514813#25 -12514813#24 189090040#19 -33056967 33056968#0 33055786#0 33055786#1 189090039#0 189090039#1 189090039#2 189090039#3 189090039#4 12500145 27607946 334781296#0-AddedOnRampEdge 334781296#0 334781296#0-AddedOffRampEdge 334781296#2 12522549#2-AddedOnRampEdge"/>
    </vehicle>
    <vehicle id="5" type="car" depart="3.50" departLane="best" departPos="random" departSpeed="max">
        <route edges="-12510960#2 -12510960#1 -12510960#0 -27603088#2 -27603088#1 -27603088#0 144846532#0 144846532#1 12511625 144846516#0 144846516#6 12514813#0"/>
    </vehicle>
    <vehicle id="6" type="car" depart="4.20" departLane="best" departPos="random" departSpeed="max">
        <route edges="-12504289#5 12505191#0 12505191#1 12505191#2 12525724#1 12510100 12510104#3 12510097#1 189090039#3 189090039#4 12500145 27607946 334781296#0-AddedOnRampEdge 334781296#0 334781296#0-AddedOffRampEdge 12497701#0 -12504100#9 12510349#7 422062164#0 422062147 195316399#1 -422062150#5"/>
    </vehicle>
    <vehicle id="8" type="car" depart="5.60" departLane="best" departPos="random" departSpeed="max">
        <route edges="-47023220 12518898#2 -12518898#0 41409564#18 -12503049#1 -12503049#0 -12503069#9 -12503069#2 -334781295#17 -334781295#16 -334781295#15 -334781295#14 -334781295#13 -334781295#12 -334781295#11 -334781295#10 -334781295#8 -334781295#3 -334781295#2 -334781295#0 189090054 -189090039#6 -189090039#4 -189090039#3 -12510097#1 -12510104#3 -12510100 -12524698"/>
    </vehicle>
    <vehicle id="9" type="car" depart="6.30" departLane="best" departPos="random" departSpeed="max">
        <route edges="12515433 -12509470#5 -12509470#4 -12509470#3 -12509470#1 -12509470#0 -370814340#1 -23968302#23 -23968302#22 -23968302#21 -23968302#19 -23968302#16 -12518943"/>
    </vehicle>
    <vehicle id="10" type="car" depart="7.00" departLane="best" departPos="random" departSpeed="max">
        <route edges="370814340#0 370814340#2 370814340#4 370814340#6 370814340#7 473901225#0 -144846516#10 -144846516#5 144846524 243508576#0 -12517094#2 -12517094#1 -12517375#5 23968302#2 23968302#4 -27049802#5 27592080 195316373#2 27583639#0"/>
    </vehicle>
    <vehicle id="11" type="car" depart="7.70" departLane="best" departPos="random" departSpeed="max">
        <route edges="12505036#0 -189090040#16 -189090040#11 -12512579#4 -12512579#3 474204619 27272673#0 27272860#2 192976882-AddedOnRampEdge 192976882 19801912#0 -12515987#2 -12515987#1 -12515987#0 -12515985#3 -12515985#2 -12515985#1 12525919"/>
    </vehicle>
    <vehicle id="12" type="car" depart="8.40" departLane="best" departPos="random" departSpeed="max">
        <route edges="-12515496#10 -12505305#1 -12505305#0 -12518735#1 -12518735#0 12519385#2 -12518433#1 -12508343#1 -12508343#0 12514598#6 -12506643#1 -12518562#1 12518315#0"/>
    </vehicle>
    <vehicle id="13" type="car" depart="9.10" departLane="best" departPos="random" departSpeed="max">
        <route edges="-12504100#4 -12504100#3 -12504100#2 -12508928#3 -12508928#2 -12508928#1 -12508928#0 -12514598#8 -12514598#7 -12514598#6 -12514598#5 -12514598#4 -12514598#3 -12514598#2 -12514598#1 -12514598#0 -473901199 -473901198#1 12498657#0 -27603088#0 144846532#0 -12517094#2 12506721#0 12506721#1 12506721#2 12506721#3 -26965605#2"/>
    </vehicle>
    <vehicle id="14" type="car" depart="9.80" departLane="best" departPos="random" departSpeed="max">
        <route edges="-12503096#0 -12526444#6 -12526444#5 -12526444#4 -12526444#3 -12526444#2 -12526444#1 -12526444#0 -12514930#1 12505817#3 -12514813#25 -12514813#24 189090040#19 26974933 23965510 33057329#0 33057329#1 33057329#7 33057329#8 33057329#9 473901198#0 473901198#1 23968302#0 23968302#2 23968302#4"/>
    </vehicle>
    <vehicle id="15" type="car" depart="10.50" departLane="best" departPos="random" departSpeed="max">
        <route edges="12120166#2 12104281#0 12104281#1 12104281#2 12104281#3 12101772#4 -12120166#0 12110232#2 12110232#3 12110232#4 -12505953"/>
    </vehicle>
    <vehicle id="16" type="car" depart="11.20" departLane="best" departPos="random" departSpeed="max">
        <route edges="195316405 195316407#8 195316407#9 195316407#10 195316407#11 12505305#1 12515496#10 12515496#11 33450159#1 33450159#2 33450159#3 33450159#4 -12521939#3 -12521939#2 -12521939#1 12526249#0 12526249#1"/>
    </vehicle>
    <vehicle id="17" type="car" depart="11.90" departLane="best" departPos="random" departSpeed="max">
        <route edges="12525577#2 -12503422#1 -12503422#0 -334781277#8 -334781277#7 -334781277#5 -334781276#11 243508576#0 243508576#1 243508576#1-AddedOffRampEdge 243508576#2 -12517561 27603088#1 27603088#2 27603088#3 12504783#0 12504783#1 334781294 334781295#0 334781295#1 334781295#3 334781295#4 334781295#9 334781295#11 -12511415#1 -12520167#2 -12520167#1"/>
    </vehicle>
    <vehicle id="18" type="car" depart="12.60" departLane="best" departPos="random" departSpeed="max">
        <route edges="-12508843#2 -12510850 12505693#1 12505693#2 -12523142#0 -12514598#1 -12514598#0 -473901199 -473901198#1 12498657#0 27603088#1 27603088#2 27603088#3 12504783#0 12504783#1 27607946 334781296#0-AddedOnRampEdge 334781296#0 334781296#0-AddedOffRampEdge 334781296#2"/>
    </vehicle>
    <vehicle id="19" type="car" depart="13.30" departLane="best" departPos="random" departSpeed="max">
        <route edges="12523214#2 12523214#3 12523214#4 -334781295#3 -334781295#2 -334781295#0 -27607883 -12504783#1 -12504783#0 -27603088#6 -27603088#2 -27603088#1 -27603088#0 4526699#1 4526699#2-AddedOnRampEdge 4526699#2 473901198#0 473901198#1 473901198#2 12514598#0 12514598#1 12514598#2 12514598#3 12514598#4 12514598#5 12514598#6 12514598#7 12514598#8 12514598#9 12514598#10 12514598#11 12514598#12 -12119535#2"/>
    </vehicle>
    <vehicle id="20" type="car" depart="14.00" departLane="best" departPos="random" departSpeed="max">
        <route edges="12522474#2 12523462#2 12505532 -12505016#2 -12505016#1 -12505016#0 -12504783#0 -27603088#6 -27603088#2 -27603088#1 -27603088#0 4526699#1 4526699#2-AddedOnRampEdge 4526699#2 473901198#0 473901198#1 473901198#2 12514598#0 12514598#1 12523142#0 12523142#1 12523142#2 12518735#1"/>
    </vehicle>
    <vehicle id="21" type="car" depart="14.70" departLane="best" departPos="random" departSpeed="max">
        <route edges="27049779 27049806 27049802#0 27049802#5 -23968302#5 -23968302#3 -23968302#1 473901198#2 12514598#0 12514598#1 12514598#2 12514598#3 12514598#4 12514598#5 12514598#6 12514598#7 12514598#8 12514598#9"/>
    </vehicle>
    <vehicle id="22" type="car" depart="15.40" departLane="best" departPos="random" departSpeed="max">
        <route edges="12504100#0 12508871#0 12508871#1 -12508928#0 -12514598#8 12506776#0 12506776#1"/>
    </vehicle>
    <vehicle id="23" type="car" depart="16.10" departLane="best" departPos="random" departSpeed="max">
        <route edges="47023220 41409564#17 41409564#18 -12503049#1 -12503049#0 -12503069#9 -12503069#2 -334781295#17 -334781295#16 -334781295#15 -334781295#14 -334781295#13 -334781295#12 -334781295#11 -334781295#10 -334781295#8 -334781295#3 -334781295#2 -334781295#0 -27607883 -12504783#1 -12504783#0 -27603088#6 -27603088#2 -27603088#1 -27603088#0 4526699#1 4526699#2-AddedOnRampEdge 4526699#2 473901198#0 473901198#1 473901198#2 12514598#0 12514598#1 12514598#2 12514598#3 12514598#4 12514598#5 12514598#6 12514598#7 12514598#8 12514598#9 12514598#10 12514598#11 12514598#12 -12110232#3 12117064 12117076#0"/>
    </vehicle>
    <vType id="ev" maxSpeed="40.00" probability="0.10" vClass="passenger" color="red">
        <param key="airDragCoefficient" value="0.3"/>
        <param key="constantPowerIntake" value="0"/>
        <param key="frontSurfaceArea" value="0.8"/>
        <param key="internalMomentOfInertia" value="0.01"/>
        <param key="maximumBatteryCapacity" value="54000"/>
        <param key="propulsionEfficiency" value="0.9"/>
        <param key="radialDragCoefficient" value="0.2"/>
        <param key="recuperationEfficiency" value="0.9"/>
        <param key="rollDragCoefficient" value="0.01"/>
        <param key="vehicleMass" value="1700"/>
    </vType>
    <vehicle id="24" type="ev" depart="16.80" departLane="best" departPos="random" departSpeed="max">
        <route edges="12510839#1 12510955#7 12510955#8 12510955#9 32043901#3 32043901#5 32043901#5-AddedOffRampEdge 41411278 12514598#1 12514598#2 12514598#3 12514598#4 12514598#5 12508343#0 12508343#1 12508343#2 12508343#3 12508343#5 12508343#6 12523142#4 12515496#4 12515496#5 12515496#6 12515496#7 12515496#8 12507524#0 12507524#1 12507524#3 195316422#4 195316422#5 195316380#0 195316380#1 195316380#3 195316380#4 12503216#3 195316379#1"/>
    </vehicle>
    <vehicle id="25" type="car" depart="17.50" departLane="best" departPos="random" departSpeed="max">
        <route edges="-12497356#0 12497356#2 12509855 -12521280#1 -12505118#0 -12520592#0 -12509269#0 -12514813#11 -12514813#7 -12514813#4 -12514813#2 -12514813#1 -144846516#10 -144846516#5 144846524 243508576#0 243508576#1 243508576#1-AddedOffRampEdge 243508576#2 4526699#1 4526699#2-AddedOnRampEdge 4526699#2 473901198#0 473901198#1 473901198#2 12514598#0 12514598#1 12514598#2 12514598#3 12514598#4 12514598#5 12508343#0 12508343#1 12508343#2 12508343#3 -12502517"/>
    </vehicle>
    <vehicle id="26" type="car" depart="18.20" departLane="best" departPos="random" departSpeed="max">
        <route edges="-12526119 12515985#3 12515987#0 12515987#1 12515987#2 19801912#1 19801912#2 19801911 19801911-AddedOffRampEdge 12504771#2 370814340#0 370814340#2 370814340#4 370814340#6 370814340#7 473901225#0 12514813#0 12514813#2 12514813#4 12514813#5 12514813#8 12514813#12 12514813#14 12514813#15 12514813#21 12514813#22 12514813#25 -12505817#4 12514930#1 12526444#0 12526444#1 12526444#2 12526444#3 12526444#4 12526444#5 12526444#6 12526444#7 12526444#8 31019022#2 31019022#3 31019022#4"/>
    </vehicle>
    <vehicle id="27" type="car" depart="18.90" departLane="best" departPos="random" departSpeed="max">
        <route edges="-8426493 13475393#2 13475393#4 -23968302#10 -23968302#6 -23968302#5 -23968302#3 -23968302#1 473901198#2 12514598#0 12514598#1 12523142#0 -12505693#2 -12505693#1 12510850 12508843#2 12505304#1 12518732 195316407#0 195316407#2 195316407#3 195316407#4 195316407#5"/>
    </vehicle>
    <vehicle id="28" type="car" depart="19.60" departLane="best" departPos="random" departSpeed="max">
        <route edges="12510955#7 12510955#8 12510955#9 32043901#3 32043901#5 32043901#5-AddedOffRampEdge 32043901#6 -473901199 -473901198#1 12498657#0 27603088#1 27603088#2 27603088#3 12504783#0 12504783#1 334781294 334781295#0 334781295#1 334781295#3 -12523214#5 -12523214#3 -12523214#2 -12523214#1 -12507944#2 12507887#0 12507887#2 -12506833#1 -12506833#0 33450159#3 33450159#4"/>
    </vehicle>
    <vehicle id="29" type="car" depart="20.30" departLane="best" departPos="random" departSpeed="max">
        <route edges="-12526444#1 -12526444#0 -12514930#1 12505817#3 -12514813#25 -12514813#24 -12514813#21 -12514813#20 -12514813#14 -12514813#13 -12514813#11 -12514813#7 -12514813#4 -12514813#2 -12514813#1 -144846516#10 -12860790 12517184#0"/>
    </vehicle>
    <vehicle id="30" type="car" depart="21.00" departLane="best" departPos="random" departSpeed="max">
        <route edges="-12517180 31019022#4 31019022#5 -12521301#7 -12503069#2 -334781295#17 -334781295#16 -33450159#8 -33450159#7 -33450159#6 -33450159#5 -33450159#4 -33450159#3 -33450159#2 -33450159#1 -33450159#0 -12515496#10 -12515496#9 -12515496#8 12516243#0 12516243#1 12516243#2 12516243#3 -12520158 -12517856#1 -12517856#0"/>
    </vehicle>
    <vehicle id="31" type="car" depart="21.70" departLane="best" departPos="random" departSpeed="max">
        <route edges="12516233#0 -12517211#2 -12517211#1 -12517426#4 -12517214#2 -12517214#0 370814340#6 370814340#7 473901225#0 -144846516#10 -144846516#5 144846524 243508576#0 243508576#1 243508576#1-AddedOffRampEdge 243508576#2 -12517561 27603088#1 27603088#2 27603088#3 12504783#0 12504783#1 334781294 334781295#0 334781295#1 334781295#3 334781295#4 334781295#9 334781295#11 334781295#12 334781295#13 12506232 -12506236#0 28427256"/>
    </vehicle>
    <vehicle id="32" type="car" depart="22.40" departLane="best" departPos="random" departSpeed="max">
        <route edges="-27586619 -56185965#0 56185966#0 -12504813 -23968302#5 -23968302#3 12517375#0 12517094#0 12517094#2 144846532#1 12511625 144846516#0 144846516#6 12514813#0 12514813#2 12517426#0 12517426#1 12515004#0 12515004#1 12508097 -12516233#1"/>
    </vehicle>
    <vehicle id="33" type="car" depart="23.10" departLane="best" departPos="random" departSpeed="max">
        <route edges="12522202#1 -28693981#1 -28693981#0 -12514813#26 -12505817#4 12514930#1 12526444#0 12526444#1 12526444#2 12526444#3 12526444#4 12518447"/>
    </vehicle>
    <vehicle id="34" type="ev" depart="23.80" departLane="best" departPos="random" departSpeed="max">
        <route edges="12506780#0 12506780#1 12526249#1 12516630 33450159#7 33450159#8 -334781295#15 -334781295#14 -334781295#13 -334781295#12 -334781295#11 -334781295#10 -334781295#8 -334781295#3 -334781295#2 -334781295#0 -27607883 -12504783#1 -12504783#0 -27603088#6 -27603088#2 -27603088#1 -27603088#0 4526699#1 4526699#2-AddedOnRampEdge 4526699#2 473901198#0 473901198#1 473901198#2 12514598#0 12514598#1 12514598#2 12514598#3 12514598#4 12514598#5 12508343#0 12508343#1 12518433#1"/>
    </vehicle>
    <vehicle id="35" type="car" depart="24.50" departLane="best" departPos="random" departSpeed="max">
        <route edges="12520158 -12516243#4 -12516243#2 -12516243#1 -12516243#0 -12515496#7 -12515496#6 -12515496#5 -12515496#4 -12523142#4 -12508343#6 -12508343#5 -12508343#3 -12508343#2 -12508343#1 -12508343#0 -12514598#5 -12514598#4 -12514598#3 -12514598#2 -12514598#1 -12514598#0 -473901199 -473901198#1 12498657#0 -27603088#0 144846532#0 144846532#1 12511625 144846516#0 144846516#6 12514813#0 12514813#2 12514813#4 12514813#5 12514813#8 12516691#0 12516691#1"/>
    </vehicle>
    <vehicle id="36" type="car" depart="25.20" departLane="best" departPos="random" departSpeed="max">
        <route edges="12503015#1 12510349#5 12510349#6 12504100#9 12504100#10 12497693#1 189090042#4-AddedOnRampEdge 189090042#4 189090042#4-AddedOffRampEdge 12498908 334781295#0 -12525901#4 -12525901#0 12524976#1 12524976#2"/>
    </vehicle>
    <vehicle id="39" type="car" depart="27.30" departLane="best" departPos="random" departSpeed="max">
        <route edges="-56185965#0 56185966#0 -12504813 -23968302#5 -23968302#3 -23968302#1 -473901198#1 12498657#0 27603088#1 27603088#2 27603088#3 12504783#0 12504783#1 334781294 334781295#0 334781295#1 334781295#3 334781295#4 334781295#9 334781295#11 -12511415#1"/>
    </vehicle>
    <vehicle id="40" type="car" depart="28.00" departLane="best" departPos="random" departSpeed="max">
        <route edges="12503422#2 12503721#0 12503721#1 -12503422#0 -334781277#8 -334781277#7 -23968302#6 -23968302#5 -23968302#3 -23968302#1 473901198#2 12514598#0 12514598#1 12514598#2 12514598#3 12514598#4 12514598#5 12514598#6 12514598#7 12514598#8 12514598#9 12514598#10 12514598#11 12514598#12 -12110232#3 -12110232#2 12120166#0 -12101772#4 -12104281#3 -12104281#2 -12104281#1 -12104281#0 12120166#3 12120166#4 12118949"/>
    </vehicle>
    <vehicle id="41" type="ev" depart="28.70" departLane="best" departPos="random" departSpeed="max">
        <route edges="-12522263 -12504859#1 -12504859#0 -27582617#0 -473901191#2 -473901191#1 -473901191#0 -334781277#9 -334781277#8 -334781277#7 -334781277#5 -334781276#11 12511625 144846516#0 144846516#6 12514813#0 12514813#2 12514813#4 12526003 79690694#0 79690694#2"/>
    </vehicle>
    <vehicle id="42" type="car" depart="29.40" departLane="best" departPos="random" departSpeed="max">
        <route edges="12517176#1 -12503197#1 -12503197#0 -27603088#1 -27603088#0 4526699#1 4526699#2-AddedOnRampEdge 4526699#2 473901198#0 473901198#1 473901198#2 12508531#0"/>
    </vehicle>
    <vehicle id="43" type="car" depart="30.10" departLane="best" departPos="random" departSpeed="max">
        <route edges="12508843#1 -12510850 12505693#1 12505693#2 -12523142#0 -12514598#1 -12514598#0 -473901199 23968302#0 23968302#2 23968302#4 23968302#6 23968302#7 -13475393#5 -8426476#4"/>
    </vehicle>
    <vehicle id="44" type="car" depart="30.80" departLane="best" departPos="random" departSpeed="max">
        <route edges="-12505045#1 -12505045#0 -12514941#2 -12514930#1 12505817#3 -12514813#25 -12514813#24 189090040#19 26974933 23965510 33057329#0 33057329#1 33057329#7 33057329#8 33057329#9 473901198#0 473901198#1 473901198#2 12508531#0 12508531#1 -12510955#9 -12510955#8 -12510955#7 -12510955#6 -12510955#5 12513610 29390518#0"/>
    </vehicle>
    <vehicle id="45" type="car" depart="31.50" departLane="best" departPos="random" departSpeed="max">
        <route edges="-12101772#2 -12101772#1 -12101772#0 12104281#1 12104281#2 12104281#3 12101772#4 -12120166#0 12110232#2 12110232#3 12110232#4 -12514598#11 -12514598#10 -12514598#9 -12514598#8 -12514598#7 -12514598#6 -12514598#5 -12514598#4 -12514598#3 -12514598#2 -12514598#1 -12514598#0 -473901199 -473901198#1 -473901198#0 -33057329#9 -33057329#8 -33057329#7 -33057329#6 -33057329#0 -23965510 12508542 33056967 -189090040#25 12514813#22 -12518084#7 -12518084#6 -12518084#4 -12512987#2"/>
    </vehicle>
    <vehicle id="46" type="car" depart="32.20" departLane="best" departPos="random" departSpeed="max">
        <route edges="-195316399#3 -195316399#2 -195316399#1 -422062147 -422062164#0 -12510349#7 12504100#9 12504100#10 12497693#1 189090042#4-AddedOnRampEdge 189090042#4 189090042#4-AddedOffRampEdge 12498908 334781295#0 334781295#1 334781295#3 334781295#4 -12525913#1 -12511455#0"/>
    </vehicle>
    <vehicle id="47" type="car" depart="32.90" departLane="best" departPos="random" departSpeed="max">
        <route edges="-12514905 12515785#2 12519015#0 12519015#2 -12516243#0 -12515496#7 -12515496#6 -12515496#5 -12515496#4 -12523142#4 -12508343#6 -12508343#5 -12508343#3 -12508343#2 -12508343#1 -12508343#0 12514598#6 12514598#7 12514598#8 12508928#0 12508928#1 12508928#2 12508928#3 12504100#2 12504100#3"/>
    </vehicle>
    <vehicle id="48" type="car" depart="33.60" departLane="best" departPos="random" departSpeed="max">
        <route edges="12525901#0 12525901#1 -334781295#0 -27607883 -12504783#1 -12504783#0 -27603088#6 -27603088#2 -27603088#1 -27603088#0 144846532#0 144846532#1 334781276#0 334781277#0"/>
    </vehicle>
    <vehicle id="49" type="car" depart="34.30" departLane="best" departPos="random" departSpeed="max">
        <route edges="-28693981#3 -28693981#1 -28693981#0 -12514813#26 -12514813#25 -12514813#24 189090040#19 26974933 23965510 33057329#0 33057329#1 33057329#7 33057329#8 33057329#9 473901198#0 473901198#1 473901198#2 12508531#0 12508531#1 12508531#3 -27582617#9 -27582617#8 -12522528#2 -12522528#1"/>
    </vehicle>
    <vehicle id="50" type="car" depart="35.00" departLane="best" departPos="random" departSpeed="max">
        <route edges="12513972#0 12513972#1 12505693#1 12505693#2 -12523142#0 -12514598#1 -12514598#0 -473901199 -473901198#1 12498657#0 27603088#1 27603088#2 27603088#3 12504783#0 12504783#1 334781294 334781295#0 334781295#1 334781295#3 334781295#4 -12525913#1 12511455#2 12510638 -12511455#5"/>
    </vehicle>
    <vehicle id="51" type="car" depart="35.70" departLane="best" departPos="random" departSpeed="max">
        <route edges="144679972#0 26711869#5 26711869#7 -12508929#12 -23968146#4 12518945 27511685#0"/>
    </vehicle>
    <vehicle id="52" type="car" depart="36.40" departLane="best" departPos="random" departSpeed="max">
        <route edges="12521939#3 33450159#5 33450159#6 33450159#7 33450159#8 -334781295#15 -334781295#14 -334781295#13 -334781295#12 -334781295#11 -334781295#10 -334781295#8 -334781295#3 12525915#0 -12511455#3"/>
    </vehicle>
    <vehicle id="53" type="ev" depart="37.10" departLane="best" departPos="random" departSpeed="max">
        <route edges="79690694#0 12516937#0 12510207#0 12510207#1 12514813#8 12514813#12 12514813#14 12514813#15 12514813#21 189090040#19 -33056967 33056968#0 33055786#0 33055786#1 189090039#0 189090039#1 189090039#2 -12510097#1 -12510097#0"/>
    </vehicle>
    <vehicle id="54" type="ev" depart="37.80" departLane="best" departPos="random" departSpeed="max">
        <route edges="-12525817 -12503096#0 12526444#7 12526444#8 31019022#2 -12519657#4 -12519657#2 -12511658#2 -41409564#3 -41409564#2 -41409564#1 -41409564#0 -12504100#9 -12510349#6 -12510349#5 -12510349#4 12516492#0"/>
    </vehicle>
    <vehicle id="55" type="car" depart="38.50" departLane="best" departPos="random" departSpeed="max">
        <route edges="26939234#1 28660990 12509898#0 144679984#7 -144846516#5 144846524 243508576#0 243508576#1 243508576#1-AddedOffRampEdge 243508576#2 -12517561 27603088#1 27603088#2 27603088#3 12504783#0 12504783#1 27607946 334781296#0-AddedOnRampEdge 334781296#0 334781296#0-AddedOffRampEdge 12497701#0 -12504100#9 12510349#7 422062164#0 422062147 195316399#1 195316399#2 195316399#3 195316399#4 195316389#3 195316387 195316383#0"/>
    </vehicle>
    <vehicle id="56" type="car" depart="39.20" departLane="best" departPos="random" departSpeed="max">
        <route edges="12510349#4 12510349#5 12510349#6 -12504100#8 -12504100#7 -12504100#6 -12504100#5 -12504100#4 12515496#0 12515496#1 12515496#2 12515496#3 12515496#4 12515496#5 12515496#6 12515496#7 12516243#0 -12519015#2"/>
    </vehicle>
    <vehicle id="57" type="car" depart="39.90" departLane="best" departPos="random" departSpeed="max">
        <route edges="12518692#0 -12518691 -12499742#2 -12511444#0 473901225#0 -144846516#10 -144846516#5 144846524 243508576#0 243508576#1 243508576#1-AddedOffRampEdge 243508576#2 -12517561 27603088#1 27603088#2 27603088#3 12504783#0 12504783#1 334781294 334781295#0 334781295#1 334781295#3 334781295#4 334781295#9 334781295#11 334781295#12 334781295#13 334781295#14 334781295#15 334781295#16 334781295#17 12503069#0 12503069#3 12503049#0 12503049#1 -41409564#18 -41409564#17"/>
    </vehicle>
    <vehicle id="59" type="ev" depart="41.30" departLane="best" departPos="random" departSpeed="max">
        <route edges="-12525858#0 -334781295#14 -334781295#13 -334781295#12 -334781295#11 -334781295#10 -334781295#8 -334781295#3 12525915#0 -12511455#3 -12511455#2"/>
    </vehicle>
    <vehicle id="60" type="car" depart="42.00" departLane="best" departPos="random" departSpeed="max">
        <route edges="12518004 -12504100#5 -12504100#4 -12504100#3 -12504100#2 -12508928#3 -12508928#2 -12508928#1 -12508928#0 -12514598#8 -12514598#7 -12514598#6 -12514598#5 -12514598#4 -12514598#3 -12514598#2 -12514598#1 -12514598#0 -473901199 -473901198#1 12498657#0 -27603088#0 144846532#0 144846532#1 12511625 144846516#0 144846516#6 -473901211#1 -370814340#9 -370814340#6 -370814340#5 -370814340#3 -370814340#1 351695510 351695512#2 351695513#0 351695513#1 351695511#0 351695511#0-AddedOffRampEdge 27273002 189090046#6-AddedOnRampEdge 189090046#6"/>
    </vehicle>
    <vehicle id="62" type="car" depart="43.40" departLane="best" departPos="random" departSpeed="max">
        <route edges="-12503197#2 -12503197#1 -12503197#0 -27603088#1 -27603088#0 144846532#0 144846532#1 12511625 144846516#0 144846516#6 -473901211#1 -370814340#9 -370814340#6 -370814340#5 -370814340#3 -370814340#1 -23968302#23 -23968302#22 12525193#0 5163623#4 5163623#6 5163623#1"/>
    </vehicle>
    <vehicle id="63" type="car" depart="44.10" departLane="best" departPos="random" departSpeed="max">
        <route edges="-12518765 12522202#1 -28693981#1 -28693981#0 -12514813#26 -12514813#25 -12514813#24 189090040#19 -33056967 33056968#0 33055786#0 33055786#1 189090039#0 189090039#1 189090039#2 189090039#3 189090039#4 12500145 334781294 334781295#0 334781295#1 334781295#3 334781295#4 334781295#9 334781295#11 -12511415#1 -12511415#0"/>
    </vehicle>
    <vehicle id="64" type="car" depart="44.80" departLane="best" departPos="random" departSpeed="max">
        <route edges="-334781295#8 -334781295#3 -334781295#2 -334781295#0 189090054 -189090039#6 -189090039#4 -189090039#3 -189090039#2 -189090039#1 -189090039#0 -33055786#1 -33055786#0 -33056968#1 33056967 -189090040#25 12514813#22 12514813#25"/>
    </vehicle>
    <vehicle id="65" type="car" depart="45.50" departLane="best" departPos="random" departSpeed="max">
        <route edges="32043901#3 32043901#5 32043901#5-AddedOffRampEdge 32043901#6 -473901199 -473901198#1 12498657#0 27603088#1 27603088#2 27603088#3 12504783#0 12504783#1 334781294 334781295#0 334781295#1 334781295#3 334781295#4 334781295#9 334781295#11 334781295#12 334781295#13 334781295#14 334781295#15 334781295#16 334781295#17 12503069#0 12503069#3 12503049#0 12503049#1 -41409564#18 -41409564#17 -41409564#16 -12510800#3 -12510800#2 -12510800#1 12513650#0"/>
    </vehicle>
    <vehicle id="66" type="ev" depart="46.20" departLane="best" departPos="random" departSpeed="max">
        <route edges="-12506721#0 12517094#2 144846532#1 12511625 144846516#0 144846516#6 -473901211#1 -370814340#9 -370814340#6 12517214#0 12517214#1 12517426#4 12517211#0"/>
    </vehicle>
    <vehicle id="67" type="car" depart="46.90" departLane="best" departPos="random" departSpeed="max">
        <route edges="-12518084#6 12509610#0 -12505817#8 -12505817#5 -12514813#25 -12514813#24 189090040#19 26974933 23965510 33057329#0 33057329#1 33057329#7 33057329#8 33057329#9 473901198#0 473901198#1 473901198#2 12514598#0 12514598#1 12514598#2 12514598#3 12514598#4 12514598#5 12508343#0 12508343#1 12508343#2 12508343#3 12519385#0"/>
    </vehicle>
    <vehicle id="68" type="car" depart="47.60" departLane="best" departPos="random" departSpeed="max">
        <route edges="-334781277#8"/>
    </vehicle>
    <vehicle id="70" type="car" depart="49.00" departLane="best" departPos="random" departSpeed="max">
        <route edges="-195316375 195316379#2 195316379#3 195316379#5 195316422#2 195316378#0 195316378#1 195316378#3 12515496#9 12515496#10 -12507530#5 -12507530#4 -12507530#3 -12507530#2 -12507530#0 -12505016#0 12504783#1 27607946 334781296#0-AddedOnRampEdge 334781296#0"/>
    </vehicle>
    <vehicle id="71" type="car" depart="49.70" departLane="best" departPos="random" departSpeed="max">
        <route edges="12511444#1 12511450 -12517426#0 -12514813#2 -12514813#1 -144846516#10 -144846516#5 144846524 243508576#0 243508576#1 243508576#1-AddedOffRampEdge 243508576#2 -12517561 27603088#1 27603088#2 27603088#3 12504783#0 12504783#1 334781294 334781295#0 334781295#1 334781295#3 334781295#4 334781295#9 334781295#11 334781295#12 334781295#13 334781295#14 334781295#15 334781295#16 334781295#17 12503069#0 12503069#3 12503049#0 12503049#1 12525669 12524991#0 12524991#3 12524991#4 12524991#5 12500196"/>
    </vehicle>
    <vehicle id="72" type="car" depart="50.40" departLane="best" departPos="random" departSpeed="max">