<?xml version="1.0" encoding="UTF-8"?>

<!-- generated on 10/01/18 10:52:21 by SUMO duarouter Version 0.30.0
<?xml version="1.0" encoding="UTF-8"?>

<configuration xmlns:xsi="http://www.w3.org/2001/XMLSchema-instance" xsi:noNamespaceSchemaLocation="http://sumo.dlr.de/xsd/duarouterConfiguration.xsd">

    <input>
        <net-file value="sioux.net.xml"/>
        <alternative-files value="sioux_004.rou.alt.xml"/>
        <weight-files value="dump_004_900.xml"/>
    </input>

    <output>
        <output-file value="sioux_005.rou.xml"/>
        <exit-times value="false"/>
    </output>

    <processing>
        <ignore-errors value="false"/>
        <max-alternatives value="5"/>
        <with-taz value="false"/>
        <routing-algorithm value="dijkstra"/>
        <weights.expand value="true"/>
        <gawron.beta value="0.9"/>
        <gawron.a value="0.5"/>
        <keep-all-routes value="false"/>
        <logit value="false"/>
        <logit.beta value="0.15"/>
        <logit.gamma value="1"/>
    </processing>

    <time>
        <begin value="0"/>
    </time>

    <report>
        <verbose value="false"/>
        <no-warnings value="false"/>
        <no-step-log value="true"/>
    </report>

    <random_number>
        <random value="false"/>
    </random_number>

</configuration>
-->

<routes xmlns:xsi="http://www.w3.org/2001/XMLSchema-instance" xsi:noNamespaceSchemaLocation="http://sumo.dlr.de/xsd/routes_file.xsd">
    <vType id="car" maxSpeed="40.00" probability="0.90" vClass="passenger"/>
    <vehicle id="10_1.0" type="car" depart="0.00" departPos="base">
        <route edges="ef10 26 23 11 8 5 eb1"/>
    </vehicle>
    <vType id="ev" maxSpeed="40.00" probability="0.10" vClass="passenger" color="red">
        <param key="airDragCoefficient" value="0.3"/>
        <param key="constantPowerIntake" value="0"/>
        <param key="frontSurfaceArea" value="0.8"/>
        <param key="internalMomentOfInertia" value="0.01"/>
        <param key="maximumBatteryCapacity" value="54"/>
        <param key="propulsionEfficiency" value="0.9"/>
        <param key="radialDragCoefficient" value="0.2"/>
        <param key="recuperationEfficiency" value="0.9"/>
        <param key="rollDragCoefficient" value="0.01"/>
        <param key="vehicleMass" value="1700"/>
    </vType>
    <vehicle id="10_11.0" type="ev" depart="0.00" departPos="base">
        <route edges="ef10 27 eb11"/>
    </vehicle>
    <vehicle id="10_12.0" type="car" depart="0.00" departPos="base">
        <route edges="ef10 27 33 eb12"/>
    </vehicle>
    <vehicle id="10_13.0" type="car" depart="0.00" departPos="base">
        <route edges="ef10 27 33 37 eb13"/>
    </vehicle>
    <vehicle id="10_14.0" type="car" depart="0.00" departPos="base">
        <route edges="ef10 27 34 eb14"/>
    </vehicle>
    <vehicle id="10_15.0" type="car" depart="0.00" departPos="base">
        <route edges="ef10 28 eb15"/>
    </vehicle>
    <vehicle id="10_16.0" type="car" depart="0.00" departPos="base">
        <route edges="ef10 29 eb16"/>
    </vehicle>
    <vehicle id="10_17.0" type="car" depart="0.00" departPos="base">
        <route edges="ef10 29 49 eb17"/>
    </vehicle>
    <vehicle id="10_18.0" type="car" depart="0.00" departPos="base">
        <route edges="ef10 29 50 eb18"/>
    </vehicle>
    <vehicle id="10_19.0" type="car" depart="0.00" departPos="base">
        <route edges="ef10 29 49 53 eb19"/>
    </vehicle>
    <vehicle id="10_2.0" type="car" depart="0.00" departPos="base">
        <route edges="ef10 29 47 19 14 eb2"/>
    </vehicle>
    <vehicle id="10_20.0" type="car" depart="0.00" departPos="base">
        <route edges="ef10 29 50 56 eb20"/>
    </vehicle>
    <vehicle id="10_21.0" type="car" depart="0.00" departPos="base">
        <route edges="ef10 28 46 69 eb21"/>
    </vehicle>
    <vehicle id="10_22.0" type="car" depart="0.00" departPos="base">
        <route edges="ef10 28 46 eb22"/>
    </vehicle>
    <vehicle id="10_23.0" type="car" depart="0.00" departPos="base">
        <route edges="ef10 28 46 70 eb23"/>
    </vehicle>
    <vehicle id="10_24.0" type="car" depart="0.00" departPos="base">
        <route edges="ef10 28 46 69 66 eb24"/>
    </vehicle>
    <vehicle id="10_3.0" type="car" depart="0.00" departPos="base">
        <route edges="ef10 26 23 11 8 eb3"/>
    </vehicle>
    <vehicle id="10_4.0" type="car" depart="0.00" departPos="base">
        <route edges="ef10 26 23 11 eb4"/>
    </vehicle>
    <vehicle id="10_5.0" type="car" depart="0.00" departPos="base">
        <route edges="ef10 26 23 eb5"/>
    </vehicle>
    <vehicle id="10_6.0" type="car" depart="0.00" departPos="base">
        <route edges="ef10 29 47 19 eb6"/>
    </vehicle>
    <vehicle id="10_7.0" type="car" depart="0.00" departPos="base">
        <route edges="ef10 29 50 54 eb7"/>
    </vehicle>
    <vehicle id="10_8.0" type="car" depart="0.00" departPos="base">
        <route edges="ef10 29 47 eb8"/>
    </vehicle>
    <vehicle id="10_9.0" type="ev" depart="0.00" departPos="base">
        <route edges="ef10 26 eb9"/>
    </vehicle>
    <vehicle id="11_1.0" type="car" depart="0.00" departPos="base">
        <route edges="ef11 31 8 5 eb1"/>
    </vehicle>
    <vehicle id="11_10.0" type="car" depart="0.00" departPos="base">
        <route edges="ef11 32 eb10"/>
    </vehicle>
    <vehicle id="11_12.0" type="ev" depart="0.00" departPos="base">
        <route edges="ef11 33 eb12"/>
    </vehicle>
    <vehicle id="11_13.0" type="car" depart="0.00" departPos="base">
        <route edges="ef11 33 37 eb13"/>
    </vehicle>
    <vehicle id="11_14.0" type="car" depart="0.00" departPos="base">
        <route edges="ef11 34 eb14"/>
    </vehicle>
    <vehicle id="11_15.0" type="car" depart="0.00" departPos="base">
        <route edges="ef11 34 41 eb15"/>
    </vehicle>
    <vehicle id="11_16.0" type="car" depart="0.00" departPos="base">
        <route edges="ef11 32 29 eb16"/>
    </vehicle>
    <vehicle id="11_17.0" type="car" depart="0.00" departPos="base">
        <route edges="ef11 32 29 49 eb17"/>
    </vehicle>
    <vehicle id="11_18.0" type="car" depart="0.00" departPos="base">
        <route edges="ef11 32 29 50 eb18"/>
    </vehicle>
    <vehicle id="11_19.0" type="car" depart="0.00" departPos="base">
        <route edges="ef11 34 41 45 eb19"/>
    </vehicle>
    <vehicle id="11_2.0" type="car" depart="0.00" departPos="base">
        <route edges="ef11 31 9 12 14 eb2"/>
    </vehicle>
    <vehicle id="11_20.0" type="car" depart="0.00" departPos="base">
        <route edges="ef11 32 29 50 56 eb20"/>
    </vehicle>
    <vehicle id="11_21.0" type="ev" depart="0.00" departPos="base">
        <route edges="ef11 34 42 73 75 eb21"/>
    </vehicle>
    <vehicle id="11_22.0" type="car" depart="0.00" departPos="base">
        <route edges="ef11 34 41 46 eb22"/>
    </vehicle>
    <vehicle id="11_23.0" type="car" depart="0.00" departPos="base">
        <route edges="ef11 34 42 eb23"/>
    </vehicle>
    <vehicle id="11_24.0" type="ev" depart="0.00" departPos="base">
        <route edges="ef11 34 42 73 eb24"/>
    </vehicle>
    <vehicle id="11_3.0" type="car" depart="0.00" departPos="base">
        <route edges="ef11 33 35 eb3"/>
    </vehicle>
    <vehicle id="11_4.0" type="car" depart="0.00" departPos="base">
        <route edges="ef11 31 eb4"/>
    </vehicle>
    <vehicle id="11_5.0" type="car" depart="0.00" departPos="base">
        <route edges="ef11 31 9 eb5"/>
    </vehicle>
    <vehicle id="11_6.0" type="car" depart="0.00" departPos="base">
        <route edges="ef11 31 9 12 eb6"/>
    </vehicle>
    <vehicle id="11_7.0" type="car" depart="0.00" departPos="base">
        <route edges="ef11 32 29 50 54 eb7"/>
    </vehicle>
    <vehicle id="11_8.0" type="car" depart="0.00" departPos="base">
        <route edges="ef11 32 29 47 eb8"/>
    </vehicle>
    <vehicle id="11_9.0" type="car" depart="0.00" departPos="base">
        <route edges="ef11 32 26 eb9"/>
    </vehicle>
    <vehicle id="12_1.0" type="car" depart="0.00" departPos="base">
        <route edges="ef12 35 5 eb1"/>
    </vehicle>
    <vehicle id="12_10.0" type="car" depart="0.00" departPos="base">
        <route edges="ef12 36 32 eb10"/>
    </vehicle>
    <vehicle id="12_11.0" type="car" depart="0.00" departPos="base">
        <route edges="ef12 36 eb11"/>
    </vehicle>
    <vehicle id="12_13.0" type="car" depart="0.00" departPos="base">
        <route edges="ef12 37 eb13"/>
    </vehicle>
    <vehicle id="12_14.0" type="car" depart="0.00" departPos="base">
        <route edges="ef12 36 34 eb14"/>
    </vehicle>
    <vehicle id="12_15.0" type="car" depart="0.00" departPos="base">
        <route edges="ef12 36 34 41 eb15"/>
    </vehicle>
    <vehicle id="12_16.0" type="ev" depart="0.00" departPos="base">
        <route edges="ef12 36 32 29 eb16"/>
    </vehicle>
    <vehicle id="12_17.0" type="ev" depart="0.00" departPos="base">
        <route edges="ef12 36 32 30 eb17"/>
    </vehicle>
    <vehicle id="12_18.0" type="ev" depart="0.00" departPos="base">
        <route edges="ef12 36 32 29 50 eb18"/>
    </vehicle>
    <vehicle id="12_19.0" type="car" depart="0.00" departPos="base">
        <route edges="ef12 36 34 41 45 eb19"/>
    </vehicle>
    <vehicle id="12_2.0" type="ev" depart="0.00" departPos="base">
        <route edges="ef12 35 5 1 eb2"/>
    </vehicle>
    <vehicle id="12_20.0" type="ev" depart="0.00" departPos="base">
        <route edges="ef12 37 39 75 64 eb20"/>
    </vehicle>
    <vehicle id="12_21.0" type="ev" depart="0.00" departPos="base">
        <route edges="ef12 37 39 75 eb21"/>
    </vehicle>
    <vehicle id="12_22.0" type="car" depart="0.00" departPos="base">
        <route edges="ef12 37 39 75 65 eb22"/>
    </vehicle>
    <vehicle id="12_23.0" type="car" depart="0.00" departPos="base">
        <route edges="ef12 37 39 76 eb23"/>
    </vehicle>
    <vehicle id="12_24.0" type="car" depart="0.00" departPos="base">
        <route edges="ef12 37 39 eb24"/>
    </vehicle>
    <vehicle id="12_3.0" type="ev" depart="0.00" departPos="base">
        <route edges="ef12 35 eb3"/>
    </vehicle>
    <vehicle id="12_4.0" type="car" depart="0.00" departPos="base">
        <route edges="ef12 35 6 eb4"/>
    </vehicle>
    <vehicle id="12_5.0" type="ev" depart="0.00" departPos="base">
        <route edges="ef12 35 6 9 eb5"/>
    </vehicle>
    <vehicle id="12_6.0" type="car" depart="0.00" departPos="base">
        <route edges="ef12 35 6 9 12 eb6"/>
    </vehicle>
    <vehicle id="12_7.0" type="car" depart="0.00" departPos="base">
        <route edges="ef12 35 6 9 12 16 20 eb7"/>
    </vehicle>
    <vehicle id="12_8.0" type="car" depart="0.00" departPos="base">
        <route edges="ef12 35 6 9 12 16 eb8"/>
    </vehicle>
    <vehicle id="12_9.0" type="car" depart="0.00" departPos="base">
        <route edges="ef12 36 32 26 eb9"/>
    </vehicle>
    <vehicle id="13_1.0" type="car" depart="0.00" departPos="base">
        <route edges="ef13 38 35 5 eb1"/>
    </vehicle>
    <vehicle id="13_10.0" type="ev" depart="0.00" departPos="base">
        <route edges="ef13 38 36 32 eb10"/>
    </vehicle>
    <vehicle id="13_11.0" type="car" depart="0.00" departPos="base">
        <route edges="ef13 38 36 eb11"/>
    </vehicle>
    <vehicle id="13_12.0" type="car" depart="0.00" departPos="base">
        <route edges="ef13 38 eb12"/>
    </vehicle>
    <vehicle id="13_14.0" type="car" depart="0.00" departPos="base">
        <route edges="ef13 39 76 71 eb14"/>
    </vehicle>
    <vehicle id="13_15.0" type="car" depart="0.00" departPos="base">
        <route edges="ef13 39 75 65 67 eb15"/>
    </vehicle>
    <vehicle id="13_16.0" type="car" depart="0.00" departPos="base">
        <route edges="ef13 38 36 32 29 eb16"/>
    </vehicle>
    <vehicle id="13_17.0" type="car" depart="0.00" departPos="base">
        <route edges="ef13 39 75 65 67 45 58 eb17"/>
    </vehicle>
    <vehicle id="13_18.0" type="car" depart="0.00" departPos="base">
        <route edges="ef13 39 75 64 60 eb18"/>
    </vehicle>
    <vehicle id="13_19.0" type="car" depart="0.00" departPos="base">
        <route edges="ef13 39 75 64 61 eb19"/>
    </vehicle>
    <vehicle id="13_2.0" type="car" depart="0.00" departPos="base">
        <route edges="ef13 38 35 5 1 eb2"/>
    </vehicle>
    <vehicle id="13_20.0" type="car" depart="0.00" departPos="base">
        <route edges="ef13 39 75 64 eb20"/>
    </vehicle>
    <vehicle id="13_21.0" type="ev" depart="0.00" departPos="base">
        <route edges="ef13 39 75 eb21"/>
    </vehicle>
    <vehicle id="13_22.0" type="car" depart="0.00" departPos="base">
        <route edges="ef13 39 75 65 eb22"/>
    </vehicle>
    <vehicle id="13_23.0" type="car" depart="0.00" departPos="base">
        <route edges="ef13 39 76 eb23"/>
    </vehicle>
    <vehicle id="13_24.0" type="car" depart="0.00" departPos="base">
        <route edges="ef13 39 eb24"/>
    </vehicle>
    <vehicle id="13_3.0" type="car" depart="0.00" departPos="base">
        <route edges="ef13 38 35 eb3"/>
    </vehicle>
    <vehicle id="13_4.0" type="car" depart="0.00" departPos="base">
        <route edges="ef13 38 35 6 eb4"/>
    </vehicle>
    <vehicle id="13_5.0" type="car" depart="0.00" departPos="base">
        <route edges="ef13 38 35 6 9 eb5"/>
    </vehicle>
    <vehicle id="13_6.0" type="car" depart="0.00" departPos="base">
        <route edges="ef13 38 35 6 9 12 eb6"/>
    </vehicle>
    <vehicle id="13_7.0" type="car" depart="0.00" departPos="base">
        <route edges="ef13 39 75 64 60 54 eb7"/>
    </vehicle>
    <vehicle id="13_8.0" type="car" depart="0.00" departPos="base">
        <route edges="ef13 38 35 6 9 12 16 eb8"/>
    </vehicle>
    <vehicle id="13_9.0" type="car" depart="0.00" departPos="base">
        <route edges="ef13 38 36 32 26 eb9"/>
    </vehicle>
    <vehicle id="14_1.0" type="car" depart="0.00" departPos="base">
        <route edges="ef14 40 33 35 5 eb1"/>
    </vehicle>
    <vehicle id="14_10.0" type="car" depart="0.00" departPos="base">
        <route edges="ef14 40 32 eb10"/>
    </vehicle>
    <vehicle id="14_11.0" type="car" depart="0.00" departPos="base">
        <route edges="ef14 40 eb11"/>
    </vehicle>
    <vehicle id="14_12.0" type="ev" depart="0.00" departPos="base">
        <route edges="ef14 40 33 eb12"/>
    </vehicle>
    <vehicle id="14_13.0" type="car" depart="0.00" departPos="base">
        <route edges="ef14 42 73 74 eb13"/>
    </vehicle>
    <vehicle id="14_15.0" type="car" depart="0.00" departPos="base">
        <route edges="ef14 41 eb15"/>
    </vehicle>
    <vehicle id="14_16.0" type="car" depart="0.00" departPos="base">
        <route edges="ef14 40 32 29 eb16"/>
    </vehicle>
    <vehicle id="14_17.0" type="car" depart="0.00" departPos="base">
        <route edges="ef14 41 45 58 eb17"/>
    </vehicle>
    <vehicle id="14_18.0" type="car" depart="0.00" departPos="base">
        <route edges="ef14 40 32 29 50 eb18"/>
    </vehicle>
    <vehicle id="14_19.0" type="car" depart="0.00" departPos="base">
        <route edges="ef14 41 45 eb19"/>
    </vehicle>
    <vehicle id="14_2.0" type="car" depart="0.00" departPos="base">
        <route edges="ef14 40 31 9 12 14 eb2"/>
    </vehicle>
    <vehicle id="14_20.0" type="car" depart="0.00" departPos="base">
        <route edges="ef14 41 46 68 eb20"/>
    </vehicle>
    <vehicle id="14_21.0" type="car" depart="0.00" departPos="base">
        <route edges="ef14 42 73 75 eb21"/>
    </vehicle>
    <vehicle id="14_22.0" type="ev" depart="0.00" departPos="base">
        <route edges="ef14 41 46 eb22"/>
    </vehicle>
    <vehicle id="14_23.0" type="car" depart="0.00" departPos="base">
        <route edges="ef14 42 eb23"/>
    </vehicle>
    <vehicle id="14_24.0" type="car" depart="0.00" departPos="base">
        <route edges="ef14 42 73 eb24"/>
    </vehicle>
    <vehicle id="14_3.0" type="car" depart="0.00" departPos="base">
        <route edges="ef14 40 31 8 eb3"/>
    </vehicle>
    <vehicle id="14_4.0" type="car" depart="0.00" departPos="base">
        <route edges="ef14 40 31 eb4"/>
    </vehicle>
    <vehicle id="14_5.0" type="ev" depart="0.00" departPos="base">
        <route edges="ef14 40 31 9 eb5"/>
    </vehicle>
    <vehicle id="14_6.0" type="car" depart="0.00" departPos="base">
        <route edges="ef14 40 31 9 12 eb6"/>
    </vehicle>
    <vehicle id="14_7.0" type="car" depart="0.00" departPos="base">
        <route edges="ef14 40 32 29 50 54 eb7"/>
    </vehicle>
    <vehicle id="14_8.0" type="car" depart="0.00" departPos="base">
        <route edges="ef14 41 45 58 52 47 eb8"/>
    </vehicle>
    <vehicle id="14_9.0" type="car" depart="0.00" departPos="base">
        <route edges="ef14 40 32 26 eb9"/>
    </vehicle>
    <vehicle id="15_1.0" type="car" depart="0.00" departPos="base">
        <route edges="ef15 44 40 33 35 5 eb1"/>
    </vehicle>
    <vehicle id="15_10.0" type="car" depart="0.00" departPos="base">
        <route edges="ef15 43 eb10"/>
    </vehicle>
    <vehicle id="15_11.0" type="car" depart="0.00" departPos="base">
        <route edges="ef15 44 40 eb11"/>
    </vehicle>
    <vehicle id="15_12.0" type="car" depart="0.00" departPos="base">
        <route edges="ef15 44 40 33 eb12"/>
    </vehicle>
    <vehicle id="15_13.0" type="car" depart="0.00" departPos="base">
        <route edges="ef15 46 69 66 74 eb13"/>
    </vehicle>
    <vehicle id="15_14.0" type="car" depart="0.00" departPos="base">
        <route edges="ef15 44 eb14"/>
    </vehicle>
    <vehicle id="15_16.0" type="car" depart="0.00" departPos="base">
        <route edges="ef15 45 58 52 eb16"/>
    </vehicle>
    <vehicle id="15_17.0" type="car" depart="0.00" departPos="base">
        <route edges="ef15 45 58 eb17"/>
    </vehicle>
    <vehicle id="15_18.0" type="car" depart="0.00" departPos="base">
        <route edges="ef15 46 68 60 eb18"/>
    </vehicle>
    <vehicle id="15_19.0" type="car" depart="0.00" departPos="base">
        <route edges="ef15 45 eb19"/>
    </vehicle>
    <vehicle id="15_2.0" type="car" depart="0.00" departPos="base">
        <route edges="ef15 45 58 52 47 19 14 eb2"/>
    </vehicle>
    <vehicle id="15_20.0" type="car" depart="0.00" departPos="base">
        <route edges="ef15 45 59 eb20"/>
    </vehicle>
    <vehicle id="15_21.0" type="car" depart="0.00" departPos="base">
        <route edges="ef15 46 69 eb21"/>
    </vehicle>
    <vehicle id="15_22.0" type="ev" depart="0.00" departPos="base">
        <route edges="ef15 46 eb22"/>
    </vehicle>
    <vehicle id="15_23.0" type="car" depart="0.00" departPos="base">
        <route edges="ef15 46 70 eb23"/>
    </vehicle>
    <vehicle id="15_24.0" type="car" depart="0.00" departPos="base">
        <route edges="ef15 46 69 66 eb24"/>
    </vehicle>
    <vehicle id="15_3.0" type="car" depart="0.00" departPos="base">
        <route edges="ef15 44 40 31 8 eb3"/>
    </vehicle>
    <vehicle id="15_4.0" type="car" depart="0.00" departPos="base">
        <route edges="ef15 44 40 31 eb4"/>
    </vehicle>
    <vehicle id="15_5.0" type="car" depart="0.00" departPos="base">
        <route edges="ef15 43 26 23 eb5"/>
    </vehicle>
    <vehicle id="15_6.0" type="car" depart="0.00" departPos="base">
        <route edges="ef15 45 58 52 47 19 eb6"/>
    </vehicle>
    <vehicle id="15_7.0" type="ev" depart="0.00" departPos="base">
        <route edges="ef15 46 68 60 54 eb7"/>
    </vehicle>
    <vehicle id="15_8.0" type="car" depart="0.00" departPos="base">
        <route edges="ef15 45 58 52 47 eb8"/>
    </vehicle>
    <vehicle id="15_9.0" type="car" depart="0.00" departPos="base">
        <route edges="ef15 43 26 eb9"/>
    </vehicle>
    <vehicle id="16_1.0" type="car" depart="0.00" departPos="base">
        <route edges="ef16 47 19 14 3 eb1"/>
    </vehicle>
    <vehicle id="16_10.0" type="car" depart="0.00" departPos="base">
        <route edges="ef16 48 eb10"/>
    </vehicle>
    <vehicle id="16_11.0" type="car" depart="0.00" departPos="base">
        <route edges="ef16 48 27 eb11"/>
    </vehicle>
    <vehicle id="16_12.0" type="car" depart="0.00" departPos="base">
        <route edges="ef16 48 27 33 eb12"/>
    </vehicle>
    <vehicle id="16_13.0" type="car" depart="0.00" departPos="base">
        <route edges="ef16 48 27 33 37 eb13"/>
    </vehicle>
    <vehicle id="16_14.0" type="car" depart="0.00" departPos="base">
        <route edges="ef16 49 53 57 44 eb14"/>
    </vehicle>
    <vehicle id="16_15.0" type="car" depart="0.00" departPos="base">
        <route edges="ef16 49 53 57 eb15"/>
    </vehicle>
    <vehicle id="16_17.0" type="car" depart="0.00" departPos="base">
        <route edges="ef16 49 eb17"/>
    </vehicle>
    <vehicle id="16_18.0" type="car" depart="0.00" departPos="base">
        <route edges="ef16 50 eb18"/>
    </vehicle>
    <vehicle id="16_19.0" type="car" depart="0.00" departPos="base">
        <route edges="ef16 49 53 eb19"/>
    </vehicle>
    <vehicle id="16_2.0" type="car" depart="0.00" departPos="base">
        <route edges="ef16 47 19 14 eb2"/>
    </vehicle>
    <vehicle id="16_20.0" type="car" depart="0.00" departPos="base">
        <route edges="ef16 50 56 eb20"/>
    </vehicle>
    <vehicle id="16_21.0" type="car" depart="0.00" departPos="base">
        <route edges="ef16 50 56 62 eb21"/>
    </vehicle>
    <vehicle id="16_22.0" type="car" depart="0.00" departPos="base">
        <route edges="ef16 49 53 57 46 eb22"/>
    </vehicle>
    <vehicle id="16_23.0" type="car" depart="0.00" departPos="base">
        <route edges="ef16 49 53 57 46 70 eb23"/>
    </vehicle>
    <vehicle id="16_24.0" type="car" depart="0.00" departPos="base">
        <route edges="ef16 49 53 57 46 69 66 eb24"/>
    </vehicle>
    <vehicle id="16_3.0" type="car" depart="0.00" departPos="base">
        <route edges="ef16 47 19 15 11 8 eb3"/>
    </vehicle>
    <vehicle id="16_4.0" type="car" depart="0.00" departPos="base">
        <route edges="ef16 47 19 15 11 eb4"/>
    </vehicle>
    <vehicle id="16_5.0" type="car" depart="0.00" departPos="base">
        <route edges="ef16 47 19 15 eb5"/>
    </vehicle>
    <vehicle id="16_6.0" type="car" depart="0.00" departPos="base">
        <route edges="ef16 47 19 eb6"/>
    </vehicle>
    <vehicle id="16_7.0" type="ev" depart="0.00" departPos="base">
        <route edges="ef16 50 54 eb7"/>
    </vehicle>
    <vehicle id="16_8.0" type="ev" depart="0.00" departPos="base">
        <route edges="ef16 47 eb8"/>
    </vehicle>
    <vehicle id="16_9.0" type="car" depart="0.00" departPos="base">
        <route edges="ef16 48 26 eb9"/>
    </vehicle>
    <vehicle id="17_1.0" type="car" depart="0.00" departPos="base">
        <route edges="ef17 52 47 19 14 3 eb1"/>
    </vehicle>
    <vehicle id="17_10.0" type="car" depart="0.00" departPos="base">
        <route edges="ef17 52 48 eb10"/>
    </vehicle>
    <vehicle id="17_11.0" type="car" depart="0.00" departPos="base">
        <route edges="ef17 52 48 27 eb11"/>
    </vehicle>
    <vehicle id="17_12.0" type="car" depart="0.00" departPos="base">
        <route edges="ef17 52 48 27 33 eb12"/>
    </vehicle>
    <vehicle id="17_13.0" type="car" depart="0.00" departPos="base">
        <route edges="ef17 53 57 46 69 66 74 eb13"/>
    </vehicle>
    <vehicle id="17_14.0" type="car" depart="0.00" departPos="base">
        <route edges="ef17 53 57 44 eb14"/>
    </vehicle>
    <vehicle id="17_15.0" type="car" depart="0.00" departPos="base">
        <route edges="ef17 53 57 eb15"/>
    </vehicle>
    <vehicle id="17_16.0" type="car" depart="0.00" departPos="base">
        <route edges="ef17 52 eb16"/>
    </vehicle>
    <vehicle id="17_18.0" type="car" depart="0.00" departPos="base">
        <route edges="ef17 52 50 eb18"/>
    </vehicle>
    <vehicle id="17_19.0" type="car" depart="0.00" departPos="base">
        <route edges="ef17 53 eb19"/>
    </vehicle>
    <vehicle id="17_2.0" type="car" depart="0.00" departPos="base">
        <route edges="ef17 52 47 19 14 eb2"/>
    </vehicle>
    <vehicle id="17_20.0" type="ev" depart="0.00" departPos="base">
        <route edges="ef17 53 59 eb20"/>
    </vehicle>
    <vehicle id="17_21.0" type="car" depart="0.00" departPos="base">
        <route edges="ef17 53 57 46 69 eb21"/>
    </vehicle>
    <vehicle id="17_22.0" type="car" depart="0.00" departPos="base">
        <route edges="ef17 53 57 46 eb22"/>
    </vehicle>
    <vehicle id="17_23.0" type="car" depart="0.00" departPos="base">
        <route edges="ef17 53 57 46 70 eb23"/>
    </vehicle>
    <vehicle id="17_24.0" type="car" depart="0.00" departPos="base">
        <route edges="ef17 53 57 46 69 66 eb24"/>
    </vehicle>
    <vehicle id="17_3.0" type="car" depart="0.00" departPos="base">
        <route edges="ef17 52 47 19 15 11 8 eb3"/>
    </vehicle>
    <vehicle id="17_4.0" type="car" depart="0.00" departPos="base">
        <route edges="ef17 52 47 19 15 11 eb4"/>
    </vehicle>
    <vehicle id="17_5.0" type="car" depart="0.00" departPos="base">
        <route edges="ef17 52 47 19 15 eb5"/>
    </vehicle>
    <vehicle id="17_6.0" type="car" depart="0.00" departPos="base">
        <route edges="ef17 52 47 19 eb6"/>
    </vehicle>
    <vehicle id="17_7.0" type="car" depart="0.00" departPos="base">
        <route edges="ef17 52 50 54 eb7"/>
    </vehicle>
    <vehicle id="17_8.0" type="car" depart="0.00" departPos="base">
        <route edges="ef17 52 47 eb8"/>
    </vehicle>
    <vehicle id="17_9.0" type="car" depart="0.00" departPos="base">
        <route edges="ef17 52 48 26 eb9"/>
    </vehicle>
    <vehicle id="18_1.0" type="car" depart="0.00" departPos="base">
        <route edges="ef18 54 17 19 14 3 eb1"/>
    </vehicle>
    <vehicle id="18_10.0" type="car" depart="0.00" departPos="base">
        <route edges="ef18 55 48 eb10"/>
    </vehicle>
    <vehicle id="18_11.0" type="car" depart="0.00" departPos="base">
        <route edges="ef18 55 48 27 eb11"/>
    </vehicle>
    <vehicle id="18_12.0" type="car" depart="0.00" departPos="base">
        <route edges="ef18 55 48 27 33 eb12"/>
    </vehicle>
    <vehicle id="18_13.0" type="car" depart="0.00" departPos="base">
        <route edges="ef18 56 62 66 74 eb13"/>
    </vehicle>
    <vehicle id="18_14.0" type="car" depart="0.00" departPos="base">
        <route edges="ef18 55 49 53 57 44 eb14"/>
    </vehicle>
    <vehicle id="18_15.0" type="ev" depart="0.00" departPos="base">
        <route edges="ef18 55 49 53 57 eb15"/>
    </vehicle>
    <vehicle id="18_16.0" type="car" depart="0.00" departPos="base">
        <route edges="ef18 55 eb16"/>
    </vehicle>
    <vehicle id="18_17.0" type="car" depart="0.00" departPos="base">
        <route edges="ef18 55 49 eb17"/>
    </vehicle>
    <vehicle id="18_19.0" type="car" depart="0.00" departPos="base">
        <route edges="ef18 55 49 53 eb19"/>
    </vehicle>
    <vehicle id="18_20.0" type="car" depart="0.00" departPos="base">
        <route edges="ef18 56 eb20"/>
    </vehicle>
    <vehicle id="18_21.0" type="car" depart="0.00" departPos="base">
        <route edges="ef18 56 62 eb21"/>
    </vehicle>
    <vehicle id="18_22.0" type="ev" depart="0.00" departPos="base">
        <route edges="ef18 56 63 eb22"/>
    </vehicle>
    <vehicle id="18_23.0" type="car" depart="0.00" departPos="base">
        <route edges="ef18 56 63 70 eb23"/>
    </vehicle>
    <vehicle id="18_4.0" type="car" depart="0.00" departPos="base">
        <route edges="ef18 54 17 19 15 11 eb4"/>
    </vehicle>
    <vehicle id="18_6.0" type="car" depart="0.00" departPos="base">
        <route edges="ef18 54 17 19 eb6"/>
    </vehicle>
    <vehicle id="18_7.0" type="ev" depart="0.00" departPos="base">
        <route edges="ef18 54 eb7"/>
    </vehicle>
    <vehicle id="18_8.0" type="car" depart="0.00" departPos="base">
        <route edges="ef18 54 17 eb8"/>
    </vehicle>
    <vehicle id="18_9.0" type="car" depart="0.00" departPos="base">
        <route edges="ef18 55 48 26 eb9"/>
    </vehicle>
    <vehicle id="19_1.0" type="car" depart="0.00" departPos="base">
        <route edges="ef19 58 52 47 19 14 3 eb1"/>
    </vehicle>
    <vehicle id="19_10.0" type="car" depart="0.00" departPos="base">
        <route edges="ef19 58 52 48 eb10"/>
    </vehicle>
    <vehicle id="19_11.0" type="car" depart="0.00" departPos="base">
        <route edges="ef19 57 44 40 eb11"/>
    </vehicle>
    <vehicle id="19_12.0" type="car" depart="0.00" departPos="base">
        <route edges="ef19 57 44 40 33 eb12"/>
    </vehicle>
    <vehicle id="19_13.0" type="car" depart="0.00" departPos="base">
        <route edges="ef19 57 46 69 66 74 eb13"/>
    </vehicle>
    <vehicle id="19_14.0" type="car" depart="0.00" departPos="base">
        <route edges="ef19 57 44 eb14"/>
    </vehicle>
    <vehicle id="19_15.0" type="car" depart="0.00" departPos="base">
        <route edges="ef19 57 eb15"/>
    </vehicle>
    <vehicle id="19_16.0" type="ev" depart="0.00" departPos="base">
        <route edges="ef19 58 52 eb16"/>
    </vehicle>
    <vehicle id="19_17.0" type="car" depart="0.00" departPos="base">
        <route edges="ef19 58 eb17"/>
    </vehicle>
    <vehicle id="19_18.0" type="car" depart="0.00" departPos="base">
        <route edges="ef19 58 52 50 eb18"/>
    </vehicle>
    <vehicle id="19_2.0" type="car" depart="0.00" departPos="base">
        <route edges="ef19 58 52 47 19 14 eb2"/>
    </vehicle>
    <vehicle id="19_20.0" type="car" depart="0.00" departPos="base">
        <route edges="ef19 59 eb20"/>
    </vehicle>
    <vehicle id="19_21.0" type="car" depart="0.00" departPos="base">
        <route edges="ef19 57 46 69 eb21"/>
    </vehicle>
    <vehicle id="19_22.0" type="car" depart="0.00" departPos="base">
        <route edges="ef19 57 46 eb22"/>
    </vehicle>
    <vehicle id="19_23.0" type="car" depart="0.00" departPos="base">
        <route edges="ef19 57 46 70 eb23"/>
    </vehicle>
    <vehicle id="19_24.0" type="car" depart="0.00" departPos="base">
        <route edges="ef19 57 46 69 66 eb24"/>
    </vehicle>
    <vehicle id="19_4.0" type="car" depart="0.00" departPos="base">