<?xml version="1.0" encoding="utf-8"?>
<net xmlns:xsi="http://www.w3.org/2001/XMLSchema-instance" version="0.27" xsi:noNamespaceSchemaLocation="http://sumo.dlr.de/xsd/net_file.xsd">
   <location convBoundary="0.00,0.00,372000.00,461000.00" netOffset="-49000.00,-49000.00" origBoundary="49000.00,49000.00,421000.00,510000.00" projParameter="!"/>
   <edge function="internal" id=":1_0">
      <lane id=":1_0_0" index="0" length="16.10" shape="1008.05,461004.95 991.95,461004.95" speed="24.59"/>
      <lane id=":1_0_1" index="1" length="16.10" shape="1008.05,461001.65 991.95,461001.65" speed="24.59"/>
   </edge>
   <edge function="internal" id=":1_2">
      <lane id=":1_2_0" index="0" length="6.41" shape="1008.05,461001.65 1003.81,461001.04 1001.98,460999.95" speed="24.59"/>
   </edge>
   <edge function="internal" id=":1_9">
      <lane id=":1_9_0" index="0" length="9.23" shape="1001.98,460999.95 1000.78,460999.23 998.96,460996.19 998.35,460991.95" speed="24.59"/>
   </edge>
   <edge function="internal" id=":1_3">
      <lane id=":1_3_0" index="0" length="7.66" shape="1004.95,460991.95 1005.14,460993.31 1005.73,460994.28 1006.69,460994.86 1008.05,460995.05" speed="24.59"/>
      <lane id=":1_3_1" index="1" length="7.66" shape="1001.65,460991.95 1002.05,460994.75 1003.25,460996.75 1005.25,460997.95 1008.05,460998.35" speed="24.59"/>
   </edge>
   <edge function="internal" id=":1_5">
      <lane id=":1_5_0" index="0" length="15.64" shape="1001.65,460991.95 1001.04,460996.19 999.22,460999.22 996.19,461001.04 991.95,461001.65" speed="24.59"/>
   </edge>
   <edge function="internal" id=":1_6">
      <lane id=":1_6_0" index="0" length="5.00" shape="991.95,460995.05 993.31,460994.86 994.27,460994.27 994.86,460993.31 995.05,460991.95" speed="24.59"/>
   </edge>
   <edge function="internal" id=":1_7">
      <lane id=":1_7_0" index="0" length="16.10" shape="991.95,460995.05 1008.05,460995.05" speed="24.59"/>
      <lane id=":1_7_1" index="1" length="16.10" shape="991.95,460998.35 1008.05,460998.35" speed="24.59"/>
   </edge>
   <edge function="internal" id=":10_0">
      <lane id=":10_0_0" index="0" length="6.64" shape="170995.05,271017.31 170994.81,271015.20 170994.10,271014.24 170992.92,271014.42 170991.26,271015.74" speed="24.59"/>
   </edge>
   <edge function="internal" id=":10_1">
      <lane id=":10_1_0" index="0" length="19.94" shape="170995.05,271017.31 170994.28,271011.90 170991.96,271008.04 170988.10,271005.72 170982.69,271004.95" speed="24.59"/>
   </edge>
   <edge function="internal" id=":10_2">
      <lane id=":10_2_0" index="0" length="30.38" shape="170995.05,271017.31 170995.05,270986.93" speed="24.59"/>
      <lane id=":10_2_1" index="1" length="30.38" shape="170998.35,271017.31 170998.35,270986.93" speed="24.59"/>
   </edge>
   <edge function="internal" id=":10_4">
      <lane id=":10_4_0" index="0" length="40.53" shape="170998.35,271017.31 170999.75,271008.49 171003.94,271000.27 171010.93,270992.66 171020.71,270985.65" speed="24.59"/>
   </edge>
   <edge function="internal" id=":10_5">
      <lane id=":10_5_0" index="0" length="37.11" shape="170998.35,271017.31 171000.02,271009.02 171005.05,271003.09 171013.42,270999.54 171025.15,270998.35" speed="24.59"/>
   </edge>
   <edge function="internal" id=":10_6">
      <lane id=":10_6_0" index="0" length="26.56" shape="171025.15,271004.95 171016.31,271005.72 171010.00,271008.04 171006.21,271011.90 171004.95,271017.31" speed="24.59"/>
   </edge>
   <edge function="internal" id=":10_7">
      <lane id=":10_7_0" index="0" length="36.44" shape="171025.15,271004.95 171014.37,271005.62 171005.13,271007.65 170997.42,271011.02 170991.26,271015.74" speed="24.59"/>
   </edge>
   <edge function="internal" id=":10_8">
      <lane id=":10_8_0" index="0" length="42.46" shape="171025.15,271004.95 170982.69,271004.95" speed="24.59"/>
      <lane id=":10_8_1" index="1" length="42.46" shape="171025.15,271001.65 170982.69,271001.65" speed="24.59"/>
   </edge>
   <edge function="internal" id=":10_10">
      <lane id=":10_10_0" index="0" length="34.04" shape="171025.15,271001.65 171013.42,271000.73 171005.05,270997.97 171000.02,270993.37 170998.35,270986.93" speed="24.59"/>
   </edge>
   <edge function="internal" id=":10_11">
      <lane id=":10_11_0" index="0" length="35.15" shape="171025.15,271001.65 171013.21,271000.65 171008.49,270997.65 171010.99,270992.65 171020.71,270985.65" speed="24.59"/>
   </edge>
   <edge function="internal" id=":10_12">
      <lane id=":10_12_0" index="0" length="8.22" shape="171024.11,270991.31 171021.84,270992.94 171021.25,270994.11 171022.35,270994.82 171025.15,270995.05" speed="24.59"/>
   </edge>
   <edge function="internal" id=":10_13">
      <lane id=":10_13_0" index="0" length="33.73" shape="171024.11,270991.31 171015.73,270997.24 171009.74,271003.56 171006.15,271010.25 171004.95,271017.31" speed="24.59"/>
   </edge>
   <edge function="internal" id=":10_14">
      <lane id=":10_14_0" index="0" length="41.40" shape="171024.11,270991.31 171016.35,270996.30 171007.12,271002.80 170998.17,271009.66 170991.26,271015.74" speed="24.59"/>
      <lane id=":10_14_1" index="1" length="41.40" shape="171022.41,270988.48 171014.56,270993.55 171005.10,271000.22 170995.93,271007.25 170988.92,271013.41" speed="24.59"/>
   </edge>
   <edge function="internal" id=":10_16">
      <lane id=":10_16_0" index="0" length="42.12" shape="171022.41,270988.48 171013.99,270992.71 171003.08,270996.99 170991.91,271000.32 170982.69,271001.65" speed="24.59"/>
   </edge>
   <edge function="internal" id=":10_17">
      <lane id=":10_17_0" index="0" length="30.80" shape="171022.41,270988.48 171011.89,270993.79 171004.37,270995.31 170999.85,270993.02 170998.35,270986.93" speed="24.59"/>
   </edge>
   <edge function="internal" id=":10_18">
      <lane id=":10_18_0" index="0" length="16.07" shape="171004.95,270986.93 171005.83,270988.30 171008.47,270988.07 171012.86,270986.24 171019.02,270982.82" speed="24.59"/>
   </edge>
   <edge function="internal" id=":10_19">
      <lane id=":10_19_0" index="0" length="23.67" shape="171004.95,270986.93 171006.21,270990.48 171010.00,270993.02 171016.31,270994.54 171025.15,270995.05" speed="24.59"/>
   </edge>
   <edge function="internal" id=":10_20">
      <lane id=":10_20_0" index="0" length="30.38" shape="171004.95,270986.93 171004.95,271017.31" speed="24.59"/>
      <lane id=":10_20_1" index="1" length="30.38" shape="171001.65,270986.93 171001.65,271017.31" speed="24.59"/>
   </edge>
   <edge function="internal" id=":10_22">
      <lane id=":10_22_0" index="0" length="30.12" shape="171001.65,270986.93 171000.85,270993.74 170998.47,271000.43 170994.49,271006.98 170988.92,271013.41" speed="24.59"/>
   </edge>
   <edge function="internal" id=":10_23">
      <lane id=":10_23_0" index="0" length="27.25" shape="171001.65,270986.93 171000.46,270993.37 170996.91,270997.97 170990.98,271000.73 170982.69,271001.65" speed="24.59"/>
   </edge>
   <edge function="internal" id=":10_24">
      <lane id=":10_24_0" index="0" length="16.66" shape="170982.69,270995.05 170988.10,270994.54 170991.96,270993.02 170994.28,270990.48 170995.05,270986.93" speed="24.59"/>
   </edge>
   <edge function="internal" id=":10_25">
      <lane id=":10_25_0" index="0" length="39.49" shape="170982.69,270995.05 170991.38,270993.86 171001.39,270990.86 171011.13,270986.90 171019.02,270982.82" speed="24.59"/>
      <lane id=":10_25_1" index="1" length="39.49" shape="170982.69,270998.35 170991.64,270997.09 171002.24,270993.93 171012.56,270989.80 171020.71,270985.65" speed="24.59"/>
   </edge>
   <edge function="internal" id=":10_27">
      <lane id=":10_27_0" index="0" length="42.46" shape="170982.69,270998.35 171025.15,270998.35" speed="24.59"/>
   </edge>
   <edge function="internal" id=":10_28">
      <lane id=":10_28_0" index="0" length="30.58" shape="170982.69,270998.35 170990.98,270999.54 170996.91,271003.09 171000.46,271009.02 171001.65,271017.31" speed="24.59"/>
   </edge>
   <edge function="internal" id=":10_29">
      <lane id=":10_29_0" index="0" length="26.38" shape="170982.69,270998.35 170991.06,270999.29 170994.89,271002.11 170994.18,271006.82 170988.92,271013.41" speed="24.59"/>
   </edge>
   <edge function="internal" id=":10_30">
      <lane id=":10_30_0" index="0" length="6.64" shape="170984.26,271008.74 170985.58,271007.08 170985.76,271005.90 170984.80,271005.19 170982.69,271004.95" speed="24.59"/>
   </edge>
   <edge function="internal" id=":10_31">
      <lane id=":10_31_0" index="0" length="24.95" shape="170984.26,271008.74 170988.98,271003.33 170992.35,270997.89 170994.38,270992.43 170995.05,270986.93" speed="24.59"/>
   </edge>
   <edge function="internal" id=":10_32">
      <lane id=":10_32_0" index="0" length="43.01" shape="170984.26,271008.74 170991.47,271002.43 171001.07,270995.06 171010.96,270988.04 171019.02,270982.82" speed="24.59"/>
      <lane id=":10_32_1" index="1" length="43.01" shape="170986.59,271011.08 170993.70,271004.84 171003.09,270997.64 171012.76,270990.80 171020.71,270985.65" speed="24.59"/>
   </edge>
   <edge function="internal" id=":10_34">
      <lane id=":10_34_0" index="0" length="41.61" shape="170986.59,271011.08 170993.77,271005.51 171002.59,271001.53 171013.05,270999.15 171025.15,270998.35" speed="24.59"/>
   </edge>
   <edge function="internal" id=":10_35">
      <lane id=":10_35_0" index="0" length="26.38" shape="170986.59,271011.08 170993.18,271005.82 170997.89,271005.11 171000.71,271008.94 171001.65,271017.31" speed="24.59"/>
   </edge>
   <edge function="internal" id=":11_0">
      <lane id=":11_0_0" index="0" length="6.64" shape="80995.05,271017.31 80994.81,271015.20 80994.10,271014.24 80992.92,271014.42 80991.26,271015.74" speed="24.59"/>
   </edge>
   <edge function="internal" id=":11_1">
      <lane id=":11_1_0" index="0" length="19.94" shape="80995.05,271017.31 80994.28,271011.90 80991.96,271008.04 80988.10,271005.72 80982.69,271004.95" speed="24.59"/>
   </edge>
   <edge function="internal" id=":11_2">
      <lane id=":11_2_0" index="0" length="25.36" shape="80995.05,271017.31 80995.05,270991.95" speed="24.59"/>
      <lane id=":11_2_1" index="1" length="25.36" shape="80998.35,271017.31 80998.35,270991.95" speed="24.59"/>
   </edge>
   <edge function="internal" id=":11_4">
      <lane id=":11_4_0" index="0" length="23.60" shape="80998.35,271017.31 80998.96,271009.02 81000.78,271003.09 81003.81,270999.54 81008.05,270998.35" speed="24.59"/>
   </edge>
   <edge function="internal" id=":11_5">
      <lane id=":11_5_0" index="0" length="13.39" shape="81008.05,271004.95 81006.69,271005.72 81005.73,271008.04 81005.14,271011.90 81004.95,271017.31" speed="24.59"/>
   </edge>
   <edge function="internal" id=":11_6">
      <lane id=":11_6_0" index="0" length="20.33" shape="81008.05,271004.95 81004.75,271005.62 81000.85,271007.65 80996.35,271011.02 80991.26,271015.74" speed="24.59"/>
   </edge>
   <edge function="internal" id=":11_7">
      <lane id=":11_7_0" index="0" length="25.36" shape="81008.05,271004.95 80982.69,271004.95" speed="24.59"/>
      <lane id=":11_7_1" index="1" length="25.36" shape="81008.05,271001.65 80982.69,271001.65" speed="24.59"/>
   </edge>
   <edge function="internal" id=":11_9">
      <lane id=":11_9_0" index="0" length="15.64" shape="81008.05,271001.65 81003.81,271001.04 81000.77,270999.23 80998.96,270996.19 80998.35,270991.95" speed="24.59"/>
   </edge>
   <edge function="internal" id=":11_10">
      <lane id=":11_10_0" index="0" length="5.00" shape="81004.95,270991.95 81005.14,270993.31 81005.72,270994.28 81006.69,270994.86 81008.05,270995.05" speed="24.59"/>
   </edge>
   <edge function="internal" id=":11_11">
      <lane id=":11_11_0" index="0" length="25.36" shape="81004.95,270991.95 81004.95,271017.31" speed="24.59"/>
      <lane id=":11_11_1" index="1" length="25.36" shape="81001.65,270991.95 81001.65,271017.31" speed="24.59"/>
   </edge>
   <edge function="internal" id=":11_13">
      <lane id=":11_13_0" index="0" length="25.48" shape="81001.65,270991.95 81000.85,270996.57 80998.47,271001.68 80994.49,271007.30 80988.92,271013.41" speed="24.59"/>
   </edge>
   <edge function="internal" id=":11_14">
      <lane id=":11_14_0" index="0" length="23.60" shape="81001.65,270991.95 81000.46,270996.19 80996.91,270999.22 80990.98,271001.04 80982.69,271001.65" speed="24.59"/>
   </edge>
   <edge function="internal" id=":11_15">
      <lane id=":11_15_0" index="0" length="13.39" shape="80982.69,270995.05 80988.10,270994.86 80991.96,270994.27 80994.28,270993.31 80995.05,270991.95" speed="24.59"/>
   </edge>
   <edge function="internal" id=":11_16">
      <lane id=":11_16_0" index="0" length="25.36" shape="80982.69,270995.05 81008.05,270995.05" speed="24.59"/>
      <lane id=":11_16_1" index="1" length="25.36" shape="80982.69,270998.35 81008.05,270998.35" speed="24.59"/>
   </edge>
   <edge function="internal" id=":11_18">
      <lane id=":11_18_0" index="0" length="30.58" shape="80982.69,270998.35 80990.98,270999.54 80996.91,271003.09 81000.46,271009.02 81001.65,271017.31" speed="24.59"/>
   </edge>
   <edge function="internal" id=":11_19">
      <lane id=":11_19_0" index="0" length="26.38" shape="80982.69,270998.35 80991.06,270999.29 80994.89,271002.11 80994.18,271006.82 80988.92,271013.41" speed="24.59"/>
   </edge>
   <edge function="internal" id=":11_20">
      <lane id=":11_20_0" index="0" length="6.64" shape="80984.26,271008.74 80985.58,271007.08 80985.76,271005.90 80984.80,271005.19 80982.69,271004.95" speed="24.59"/>
   </edge>
   <edge function="internal" id=":11_21">
      <lane id=":11_21_0" index="0" length="21.62" shape="80984.26,271008.74 80988.98,271003.65 80992.35,270999.15 80994.38,270995.25 80995.05,270991.95" speed="24.59"/>
      <lane id=":11_21_1" index="1" length="21.62" shape="80986.59,271011.08 80991.74,271005.47 80995.41,271000.41 80997.62,270995.91 80998.35,270991.95" speed="24.59"/>
   </edge>
   <edge function="internal" id=":11_23">
      <lane id=":11_23_0" index="0" length="25.48" shape="80986.59,271011.08 80992.70,271005.51 80998.32,271001.53 81003.43,270999.15 81008.05,270998.35" speed="24.59"/>
   </edge>
   <edge function="internal" id=":11_24">
      <lane id=":11_24_0" index="0" length="26.38" shape="80986.59,271011.08 80993.18,271005.82 80997.89,271005.11 81000.71,271008.94 81001.65,271017.31" speed="24.59"/>
   </edge>
   <edge function="internal" id=":12_0">
      <lane id=":12_0_0" index="0" length="5.00" shape="995.05,271008.05 994.86,271006.69 994.27,271005.72 993.31,271005.14 991.95,271004.95" speed="24.59"/>
   </edge>
   <edge function="internal" id=":12_1">
      <lane id=":12_1_0" index="0" length="16.10" shape="995.05,271008.05 995.05,270991.95" speed="24.59"/>
      <lane id=":12_1_1" index="1" length="16.10" shape="998.35,271008.05 998.35,270991.95" speed="24.59"/>
   </edge>
   <edge function="internal" id=":12_3">
      <lane id=":12_3_0" index="0" length="6.41" shape="998.35,271008.05 998.96,271003.81 1000.05,271001.98" speed="24.59"/>
   </edge>
   <edge function="internal" id=":12_16">
      <lane id=":12_16_0" index="0" length="9.23" shape="1000.05,271001.98 1000.78,271000.78 1003.81,270998.96 1008.05,270998.35" speed="24.59"/>
   </edge>
   <edge function="internal" id=":12_4">
      <lane id=":12_4_0" index="0" length="5.00" shape="1008.05,271004.95 1006.69,271005.14 1005.73,271005.73 1005.14,271006.69 1004.95,271008.05" speed="24.59"/>
   </edge>
   <edge function="internal" id=":12_5">
      <lane id=":12_5_0" index="0" length="16.10" shape="1008.05,271004.95 991.95,271004.95" speed="24.59"/>
      <lane id=":12_5_1" index="1" length="16.10" shape="1008.05,271001.65 991.95,271001.65" speed="24.59"/>
   </edge>
   <edge function="internal" id=":12_7">
      <lane id=":12_7_0" index="0" length="6.41" shape="1008.05,271001.65 1003.81,271001.04 1001.98,270999.95" speed="24.59"/>
   </edge>
   <edge function="internal" id=":12_17">
      <lane id=":12_17_0" index="0" length="9.23" shape="1001.98,270999.95 1000.78,270999.23 998.96,270996.19 998.35,270991.95" speed="24.59"/>
   </edge>
   <edge function="internal" id=":12_8">
      <lane id=":12_8_0" index="0" length="5.00" shape="1004.95,270991.95 1005.14,270993.31 1005.73,270994.28 1006.69,270994.86 1008.05,270995.05" speed="24.59"/>
   </edge>
   <edge function="internal" id=":12_9">
      <lane id=":12_9_0" index="0" length="16.10" shape="1004.95,270991.95 1004.95,271008.05" speed="24.59"/>
      <lane id=":12_9_1" index="1" length="16.10" shape="1001.65,270991.95 1001.65,271008.05" speed="24.59"/>
   </edge>
   <edge function="internal" id=":12_11">
      <lane id=":12_11_0" index="0" length="6.41" shape="1001.65,270991.95 1001.04,270996.19 999.95,270998.02" speed="24.59"/>
   </edge>
   <edge function="internal" id=":12_18">
      <lane id=":12_18_0" index="0" length="9.23" shape="999.95,270998.02 999.22,270999.22 996.19,271001.04 991.95,271001.65" speed="24.59"/>
   </edge>
   <edge function="internal" id=":12_12">
      <lane id=":12_12_0" index="0" length="5.00" shape="991.95,270995.05 993.31,270994.86 994.27,270994.27 994.86,270993.31 995.05,270991.95" speed="24.59"/>
   </edge>
   <edge function="internal" id=":12_13">
      <lane id=":12_13_0" index="0" length="16.10" shape="991.95,270995.05 1008.05,270995.05" speed="24.59"/>
      <lane id=":12_13_1" index="1" length="16.10" shape="991.95,270998.35 1008.05,270998.35" speed="24.59"/>
   </edge>
   <edge function="internal" id=":12_15">
      <lane id=":12_15_0" index="0" length="6.41" shape="991.95,270998.35 996.19,270998.96 998.02,271000.05" speed="24.59"/>
   </edge>
   <edge function="internal" id=":12_19">
      <lane id=":12_19_0" index="0" length="9.23" shape="998.02,271000.05 999.23,271000.77 1001.04,271003.81 1001.65,271008.05" speed="24.59"/>
   </edge>
   <edge function="internal" id=":13_0">
      <lane id=":13_0_0" index="0" length="7.66" shape="995.05,1008.05 994.86,1006.69 994.27,1005.73 993.31,1005.14 991.95,1004.95" speed="24.59"/>
      <lane id=":13_0_1" index="1" length="7.66" shape="998.35,1008.05 997.95,1005.25 996.75,1003.25 994.75,1002.05 991.95,1001.65" speed="24.59"/>
   </edge>
   <edge function="internal" id=":13_2">
      <lane id=":13_2_0" index="0" length="15.64" shape="998.35,1008.05 998.96,1003.81 1000.78,1000.78 1003.81,998.96 1008.05,998.35" speed="24.59"/>
   </edge>
   <edge function="internal" id=":13_3">
      <lane id=":13_3_0" index="0" length="5.00" shape="1008.05,1004.95 1006.69,1005.14 1005.73,1005.73 1005.14,1006.69 1004.95,1008.05" speed="24.59"/>
   </edge>
   <edge function="internal" id=":13_4">
      <lane id=":13_4_0" index="0" length="16.10" shape="1008.05,1004.95 991.95,1004.95" speed="24.59"/>
      <lane id=":13_4_1" index="1" length="16.10" shape="1008.05,1001.65 991.95,1001.65" speed="24.59"/>
   </edge>
   <edge function="internal" id=":13_6">
      <lane id=":13_6_0" index="0" length="16.10" shape="991.95,995.05 1008.05,995.05" speed="24.59"/>
      <lane id=":13_6_1" index="1" length="16.10" shape="991.95,998.35 1008.05,998.35" speed="24.59"/>
   </edge>
   <edge function="internal" id=":13_8">
      <lane id=":13_8_0" index="0" length="6.41" shape="991.95,998.35 996.19,998.96 998.02,1000.05" speed="24.59"/>
   </edge>
   <edge function="internal" id=":13_9">
      <lane id=":13_9_0" index="0" length="9.23" shape="998.02,1000.05 999.23,1000.78 1001.04,1003.81 1001.65,1008.05" speed="24.59"/>
   </edge>
   <edge function="internal" id=":14_0">
      <lane id=":14_0_0" index="0" length="5.00" shape="80995.05,141008.05 80994.86,141006.69 80994.28,141005.73 80993.31,141005.14 80991.95,141004.95" speed="24.59"/>
   </edge>
   <edge function="internal" id=":14_1">
      <lane id=":14_1_0" index="0" length="16.10" shape="80995.05,141008.05 80995.05,140991.95" speed="24.59"/>
      <lane id=":14_1_1" index="1" length="16.10" shape="80998.35,141008.05 80998.35,140991.95" speed="24.59"/>
   </edge>
   <edge function="internal" id=":14_3">
      <lane id=":14_3_0" index="0" length="6.41" shape="80998.35,141008.05 80998.96,141003.81 81000.05,141001.98" speed="24.59"/>
   </edge>
   <edge function="internal" id=":14_16">
      <lane id=":14_16_0" index="0" length="9.23" shape="81000.05,141001.98 81000.78,141000.77 81003.81,140998.96 81008.05,140998.35" speed="24.59"/>
   </edge>
   <edge function="internal" id=":14_4">
      <lane id=":14_4_0" index="0" length="5.00" shape="81008.05,141004.95 81006.69,141005.14 81005.73,141005.73 81005.14,141006.69 81004.95,141008.05" speed="24.59"/>
   </edge>
   <edge function="internal" id=":14_5">
      <lane id=":14_5_0" index="0" length="16.10" shape="81008.05,141004.95 80991.95,141004.95" speed="24.59"/>
      <lane id=":14_5_1" index="1" length="16.10" shape="81008.05,141001.65 80991.95,141001.65" speed="24.59"/>
   </edge>
   <edge function="internal" id=":14_7">
      <lane id=":14_7_0" index="0" length="6.41" shape="81008.05,141001.65 81003.81,141001.04 81001.98,140999.95" speed="24.59"/>
   </edge>
   <edge function="internal" id=":14_17">
      <lane id=":14_17_0" index="0" length="9.23" shape="81001.98,140999.95 81000.77,140999.22 80998.96,140996.19 80998.35,140991.95" speed="24.59"/>
   </edge>
   <edge function="internal" id=":14_8">
      <lane id=":14_8_0" index="0" length="5.00" shape="81004.95,140991.95 81005.14,140993.31 81005.72,140994.27 81006.69,140994.86 81008.05,140995.05" speed="24.59"/>
   </edge>
   <edge function="internal" id=":14_9">
      <lane id=":14_9_0" index="0" length="16.10" shape="81004.95,140991.95 81004.95,141008.05" speed="24.59"/>
      <lane id=":14_9_1" index="1" length="16.10" shape="81001.65,140991.95 81001.65,141008.05" speed="24.59"/>
   </edge>
   <edge function="internal" id=":14_11">
      <lane id=":14_11_0" index="0" length="6.41" shape="81001.65,140991.95 81001.04,140996.19 80999.95,140998.02" speed="24.59"/>
   </edge>
   <edge function="internal" id=":14_18">
      <lane id=":14_18_0" index="0" length="9.23" shape="80999.95,140998.02 80999.22,140999.23 80996.19,141001.04 80991.95,141001.65" speed="24.59"/>
   </edge>
   <edge function="internal" id=":14_12">
      <lane id=":14_12_0" index="0" length="5.00" shape="80991.95,140995.05 80993.31,140994.86 80994.27,140994.27 80994.86,140993.31 80995.05,140991.95" speed="24.59"/>
   </edge>
   <edge function="internal" id=":14_13">
      <lane id=":14_13_0" index="0" length="16.10" shape="80991.95,140995.05 81008.05,140995.05" speed="24.59"/>
      <lane id=":14_13_1" index="1" length="16.10" shape="80991.95,140998.35 81008.05,140998.35" speed="24.59"/>
   </edge>
   <edge function="internal" id=":14_15">
      <lane id=":14_15_0" index="0" length="6.41" shape="80991.95,140998.35 80996.19,140998.96 80998.02,141000.05" speed="24.59"/>
   </edge>
   <edge function="internal" id=":14_19">
      <lane id=":14_19_0" index="0" length="9.23" shape="80998.02,141000.05 80999.23,141000.78 81001.04,141003.81 81001.65,141008.05" speed="24.59"/>
   </edge>
   <edge function="internal" id=":15_0">
      <lane id=":15_0_0" index="0" length="6.64" shape="170995.05,141017.31 170994.81,141015.20 170994.10,141014.24 170992.92,141014.42 170991.26,141015.74" speed="24.59"/>
   </edge>
   <edge function="internal" id=":15_1">
      <lane id=":15_1_0" index="0" length="19.94" shape="170995.05,141017.31 170994.28,141011.90 170991.96,141008.04 170988.10,141005.72 170982.69,141004.95" speed="24.59"/>
   </edge>
   <edge function="internal" id=":15_2">
      <lane id=":15_2_0" index="0" length="25.36" shape="170995.05,141017.31 170995.05,140991.95" speed="24.59"/>
      <lane id=":15_2_1" index="1" length="25.36" shape="170998.35,141017.31 170998.35,140991.95" speed="24.59"/>
   </edge>
   <edge function="internal" id=":15_4">
      <lane id=":15_4_0" index="0" length="23.60" shape="170998.35,141017.31 170998.96,141009.02 171000.78,141003.09 171003.81,140999.54 171008.05,140998.35" speed="24.59"/>
   </edge>
   <edge function="internal" id=":15_5">
      <lane id=":15_5_0" index="0" length="13.39" shape="171008.05,141004.95 171006.69,141005.72 171005.73,141008.04 171005.14,141011.90 171004.95,141017.31" speed="24.59"/>
   </edge>
   <edge function="internal" id=":15_6">
      <lane id=":15_6_0" index="0" length="20.33" shape="171008.05,141004.95 171004.75,141005.62 171000.85,141007.65 170996.35,141011.02 170991.26,141015.74" speed="24.59"/>
   </edge>
   <edge function="internal" id=":15_7">
      <lane id=":15_7_0" index="0" length="25.36" shape="171008.05,141004.95 170982.69,141004.95" speed="24.59"/>
      <lane id=":15_7_1" index="1" length="25.36" shape="171008.05,141001.65 170982.69,141001.65" speed="24.59"/>
   </edge>
   <edge function="internal" id=":15_9">
      <lane id=":15_9_0" index="0" length="15.64" shape="171008.05,141001.65 171003.81,141001.04 171000.77,140999.22 170998.96,140996.19 170998.35,140991.95" speed="24.59"/>
   </edge>
   <edge function="internal" id=":15_10">
      <lane id=":15_10_0" index="0" length="5.00" shape="171004.95,140991.95 171005.14,140993.31 171005.73,140994.27 171006.69,140994.86 171008.05,140995.05" speed="24.59"/>
   </edge>
   <edge function="internal" id=":15_11">
      <lane id=":15_11_0" index="0" length="25.36" shape="171004.95,140991.95 171004.95,141017.31" speed="24.59"/>
      <lane id=":15_11_1" index="1" length="25.36" shape="171001.65,140991.95 171001.65,141017.31" speed="24.59"/>
   </edge>
   <edge function="internal" id=":15_13">
      <lane id=":15_13_0" index="0" length="25.48" shape="171001.65,140991.95 171000.85,140996.57 170998.47,141001.68 170994.49,141007.30 170988.92,141013.41" speed="24.59"/>
   </edge>
   <edge function="internal" id=":15_14">
      <lane id=":15_14_0" index="0" length="23.60" shape="171001.65,140991.95 171000.46,140996.19 170996.91,140999.23 170990.98,141001.04 170982.69,141001.65" speed="24.59"/>
   </edge>
   <edge function="internal" id=":15_15">
      <lane id=":15_15_0" index="0" length="13.39" shape="170982.69,140995.05 170988.10,140994.86 170991.96,140994.27 170994.28,140993.31 170995.05,140991.95" speed="24.59"/>
   </edge>
   <edge function="internal" id=":15_16">
      <lane id=":15_16_0" index="0" length="25.36" shape="170982.69,140995.05 171008.05,140995.05" speed="24.59"/>
      <lane id=":15_16_1" index="1" length="25.36" shape="170982.69,140998.35 171008.05,140998.35" speed="24.59"/>
   </edge>
   <edge function="internal" id=":15_18">
      <lane id=":15_18_0" index="0" length="30.58" shape="170982.69,140998.35 170990.98,140999.54 170996.91,141003.09 171000.46,141009.02 171001.65,141017.31" speed="24.59"/>
   </edge>
   <edge function="internal" id=":15_19">
      <lane id=":15_19_0" index="0" length="26.38" shape="170982.69,140998.35 170991.06,140999.29 170994.89,141002.11 170994.18,141006.82 170988.92,141013.41" speed="24.59"/>
   </edge>
   <edge function="internal" id=":15_20">
      <lane id=":15_20_0" index="0" length="6.64" shape="170984.26,141008.74 170985.58,141007.08 170985.76,141005.90 170984.80,141005.19 170982.69,141004.95" speed="24.59"/>
   </edge>
   <edge function="internal" id=":15_21">
      <lane id=":15_21_0" index="0" length="21.62" shape="170984.26,141008.74 170988.98,141003.65 170992.35,140999.15 170994.38,140995.25 170995.05,140991.95" speed="24.59"/>
      <lane id=":15_21_1" index="1" length="21.62" shape="170986.59,141011.08 170991.74,141005.47 170995.41,141000.41 170997.62,140995.91 170998.35,140991.95" speed="24.59"/>
   </edge>
   <edge function="internal" id=":15_23">
      <lane id=":15_23_0" index="0" length="25.48" shape="170986.59,141011.08 170992.70,141005.51 170998.32,141001.53 171003.43,140999.15 171008.05,140998.35" speed="24.59"/>
   </edge>
   <edge function="internal" id=":15_24">
      <lane id=":15_24_0" index="0" length="26.38" shape="170986.59,141011.08 170993.18,141005.82 170997.89,141005.11 171000.71,141008.94 171001.65,141017.31" speed="24.59"/>
   </edge>
   <edge function="internal" id=":16_0">
      <lane id=":16_0_0" index="0" length="6.64" shape="270995.05,271017.31 270994.81,271015.20 270994.10,271014.24 270992.92,271014.42 270991.26,271015.74" speed="24.59"/>
   </edge>
   <edge function="internal" id=":16_1">
      <lane id=":16_1_0" index="0" length="19.94" shape="270995.05,271017.31 270994.28,271011.90 270991.96,271008.04 270988.10,271005.72 270982.69,271004.95" speed="24.59"/>
   </edge>
   <edge function="internal" id=":16_2">
      <lane id=":16_2_0" index="0" length="25.36" shape="270995.05,271017.31 270995.05,270991.95" speed="24.59"/>
      <lane id=":16_2_1" index="1" length="25.36" shape="270998.35,271017.31 270998.35,270991.95" speed="24.59"/>
   </edge>
   <edge function="internal" id=":16_4">
      <lane id=":16_4_0" index="0" length="23.60" shape="270998.35,271017.31 270998.96,271009.02 271000.77,271003.09 271003.81,270999.54 271008.05,270998.35" speed="24.59"/>
   </edge>
   <edge function="internal" id=":16_5">
      <lane id=":16_5_0" index="0" length="13.39" shape="271008.05,271004.95 271006.69,271005.72 271005.72,271008.04 271005.14,271011.90 271004.95,271017.31" speed="24.59"/>
   </edge>
   <edge function="internal" id=":16_6">
      <lane id=":16_6_0" index="0" length="20.33" shape="271008.05,271004.95 271004.75,271005.62 271000.85,271007.65 270996.35,271011.02 270991.26,271015.74" speed="24.59"/>
   </edge>
   <edge function="internal" id=":16_7">
      <lane id=":16_7_0" index="0" length="25.36" shape="271008.05,271004.95 270982.69,271004.95" speed="24.59"/>
      <lane id=":16_7_1" index="1" length="25.36" shape="271008.05,271001.65 270982.69,271001.65" speed="24.59"/>
   </edge>
   <edge function="internal" id=":16_9">
      <lane id=":16_9_0" index="0" length="15.64" shape="271008.05,271001.65 271003.81,271001.04 271000.78,270999.23 270998.96,270996.19 270998.35,270991.95" speed="24.59"/>
   </edge>
   <edge function="internal" id=":16_10">
      <lane id=":16_10_0" index="0" length="5.00" shape="271004.95,270991.95 271005.14,270993.31 271005.73,270994.28 271006.69,270994.86 271008.05,270995.05" speed="24.59"/>