<routes> <!-- The opening tag -->

   <vTypeDistribution id="myDist">
        <vType id="car" maxSpeed="40" vClass="passenger" probability="0.9" type="myDist" />
        <vType id="ev" maxSpeed="40" vClass="passenger" probability="0.1" color="1,0,0">
		    <param key="maximumBatteryCapacity" value="54" type="myDist" />
		    <param key="vehicleMass" value="1700" type="myDist" />
            <param key="frontSurfaceArea" value="0.8" type="myDist" />
            <param key="airDragCoefficient" value="0.3" type="myDist" />
            <param key="internalMomentOfInertia" value="0.01" type="myDist" />
            <param key="radialDragCoefficient" value="0.2" type="myDist" />
            <param key="rollDragCoefficient" value="0.01" type="myDist" />
            <param key="constantPowerIntake" value="0" type="myDist" />
            <param key="propulsionEfficiency" value="0.9" type="myDist" />
            <param key="recuperationEfficiency" value="0.9" type="myDist" /> 
        </vType>
    </vTypeDistribution>
   
   <flow id="1_2" begin="0" end="3600" vehsPerHour="4.167" departPos="base" from="ef1" to="eb2" type="myDist" />
   <flow id="1_3" begin="0" end="3600" vehsPerHour="4.167" departPos="base" from="ef1" to="eb3" type="myDist" />
   <flow id="1_4" begin="0" end="3600" vehsPerHour="20.83" departPos="base" from="ef1" to="eb4" type="myDist" />
   <flow id="1_5" begin="0" end="3600" vehsPerHour="8.33" departPos="base" from="ef1" to="eb5" type="myDist" />
   <flow id="1_6" begin="0" end="3600" vehsPerHour="12.5" departPos="base" from="ef1" to="eb6" type="myDist" />
   <flow id="1_7" begin="0" end="3600" vehsPerHour="20.83" departPos="base" from="ef1" to="eb7" type="myDist" />
   <flow id="1_8" begin="0" end="3600" vehsPerHour="33.33" departPos="base" from="ef1" to="eb8" type="myDist" />
   <flow id="1_9" begin="0" end="3600" vehsPerHour="20.83" departPos="base" from="ef1" to="eb9" type="myDist" />
   <flow id="1_10" begin="0" end="3600" vehsPerHour="54.167" departPos="base" from="ef1" to="eb10" type="myDist" />
   <flow id="1_11" begin="0" end="3600" vehsPerHour="20.83" departPos="base" from="ef1" to="eb11" type="myDist" />
   <flow id="1_12" begin="0" end="3600" vehsPerHour="8.33" departPos="base" from="ef1" to="eb12" type="myDist" />
   <flow id="1_13" begin="0" end="3600" vehsPerHour="20.83" departPos="base" from="ef1" to="eb13" type="myDist" />
   <flow id="1_14" begin="0" end="3600" vehsPerHour="12.5" departPos="base" from="ef1" to="eb14" type="myDist" />
   <flow id="1_15" begin="0" end="3600" vehsPerHour="20.83" departPos="base" from="ef1" to="eb15" type="myDist" />
   <flow id="1_16" begin="0" end="3600" vehsPerHour="20.83" departPos="base" from="ef1" to="eb16" type="myDist" />
   <flow id="1_17" begin="0" end="3600" vehsPerHour="16.67" departPos="base" from="ef1" to="eb17" type="myDist" />
   <flow id="1_18" begin="0" end="3600" vehsPerHour="4.167" departPos="base" from="ef1" to="eb18" type="myDist" />
   <flow id="1_19" begin="0" end="3600" vehsPerHour="12.5" departPos="base" from="ef1" to="eb19" type="myDist" />
   <flow id="1_20" begin="0" end="3600" vehsPerHour="12.5" departPos="base" from="ef1" to="eb20" type="myDist" />
   <flow id="1_21" begin="0" end="3600" vehsPerHour="4.167" departPos="base" from="ef1" to="eb21" type="myDist" />
   <flow id="1_22" begin="0" end="3600" vehsPerHour="16.67" departPos="base" from="ef1" to="eb22" type="myDist" />
   <flow id="1_23" begin="0" end="3600" vehsPerHour="12.5" departPos="base" from="ef1" to="eb23" type="myDist" />
   <flow id="1_24" begin="0" end="3600" vehsPerHour="4.167" departPos="base" from="ef1" to="eb24" type="myDist" />
   
   <flow id="2_1" begin="0" end="3600" vehsPerHour="4.167" departPos="base" from="ef2" to="eb1" type="myDist" />
   <flow id="2_3" begin="0" end="3600" vehsPerHour="4.167" departPos="base" from="ef2" to="eb3" type="myDist" />
   <flow id="2_4" begin="0" end="3600" vehsPerHour="8.33" departPos="base" from="ef2" to="eb4" type="myDist" />
   <flow id="2_5" begin="0" end="3600" vehsPerHour="4.167" departPos="base" from="ef2" to="eb5" type="myDist" />
   <flow id="2_6" begin="0" end="3600" vehsPerHour="16.67" departPos="base" from="ef2" to="eb6" type="myDist" />
   <flow id="2_7" begin="0" end="3600" vehsPerHour="8.33" departPos="base" from="ef2" to="eb7" type="myDist" />
   <flow id="2_8" begin="0" end="3600" vehsPerHour="16.67" departPos="base" from="ef2" to="eb8" type="myDist" />
   <flow id="2_9" begin="0" end="3600" vehsPerHour="8.33" departPos="base" from="ef2" to="eb9" type="myDist" />
   <flow id="2_10" begin="0" end="3600" vehsPerHour="25" departPos="base" from="ef2" to="eb10" type="myDist" />
   <flow id="2_11" begin="0" end="3600" vehsPerHour="8.33" departPos="base" from="ef2" to="eb11" type="myDist" />
   <flow id="2_12" begin="0" end="3600" vehsPerHour="4.167" departPos="base" from="ef2" to="eb12" type="myDist" />
   <flow id="2_13" begin="0" end="3600" vehsPerHour="12.5" departPos="base" from="ef2" to="eb13" type="myDist" />
   <flow id="2_14" begin="0" end="3600" vehsPerHour="4.167" departPos="base" from="ef2" to="eb14" type="myDist" />
   <flow id="2_15" begin="0" end="3600" vehsPerHour="4.167" departPos="base" from="ef2" to="eb15" type="myDist" />
   <flow id="2_16" begin="0" end="3600" vehsPerHour="16.67" departPos="base" from="ef2" to="eb16" type="myDist" />
   <flow id="2_17" begin="0" end="3600" vehsPerHour="8.33" departPos="base" from="ef2" to="eb17" type="myDist" />
   <flow id="2_19" begin="0" end="3600" vehsPerHour="4.167" departPos="base" from="ef2" to="eb19" type="myDist" />
   <flow id="2_20" begin="0" end="3600" vehsPerHour="4.167" departPos="base" from="ef2" to="eb20" type="myDist" />
   <flow id="2_22" begin="0" end="3600" vehsPerHour="4.167" departPos="base" from="ef2" to="eb22" type="myDist" />
   
   <flow id="3_1" begin="0" end="3600" vehsPerHour="4.167" departPos="base" from="ef3" to="eb1" type="myDist" />
   <flow id="3_2" begin="0" end="3600" vehsPerHour="4.167" departPos="base" from="ef3" to="eb2" type="myDist" />
   <flow id="3_4" begin="0" end="3600" vehsPerHour="8.33" departPos="base" from="ef3" to="eb4" type="myDist" />
   <flow id="3_5" begin="0" end="3600" vehsPerHour="4.167" departPos="base" from="ef3" to="eb5" type="myDist" />
   <flow id="3_6" begin="0" end="3600" vehsPerHour="12.5" departPos="base" from="ef3" to="eb6" type="myDist" />
   <flow id="3_7" begin="0" end="3600" vehsPerHour="4.167" departPos="base" from="ef3" to="eb7" type="myDist" />
   <flow id="3_8" begin="0" end="3600" vehsPerHour="8.33" departPos="base" from="ef3" to="eb8" type="myDist" />
   <flow id="3_9" begin="0" end="3600" vehsPerHour="4.167" departPos="base" from="ef3" to="eb9" type="myDist" />
   <flow id="3_10" begin="0" end="3600" vehsPerHour="12.5" departPos="base" from="ef3" to="eb10" type="myDist" />
   <flow id="3_11" begin="0" end="3600" vehsPerHour="12.5" departPos="base" from="ef3" to="eb11" type="myDist" />
   <flow id="3_12" begin="0" end="3600" vehsPerHour="8.33" departPos="base" from="ef3" to="eb12" type="myDist" />
   <flow id="3_13" begin="0" end="3600" vehsPerHour="4.167" departPos="base" from="ef3" to="eb13" type="myDist" />
   <flow id="3_14" begin="0" end="3600" vehsPerHour="4.167" departPos="base" from="ef3" to="eb14" type="myDist" />
   <flow id="3_15" begin="0" end="3600" vehsPerHour="4.167" departPos="base" from="ef3" to="eb15" type="myDist" />
   <flow id="3_16" begin="0" end="3600" vehsPerHour="8.33" departPos="base" from="ef3" to="eb16" type="myDist" />
   <flow id="3_17" begin="0" end="3600" vehsPerHour="4.167" departPos="base" from="ef3" to="eb17" type="myDist" />
   <flow id="3_22" begin="0" end="3600" vehsPerHour="4.167" departPos="base" from="ef3" to="eb22" type="myDist" />
   <flow id="3_23" begin="0" end="3600" vehsPerHour="4.167" departPos="base" from="ef3" to="eb23" type="myDist" />
   
   <flow id="4_1" begin="0" end="3600" vehsPerHour="20.83" departPos="base" from="ef4" to="eb1" type="myDist" />
   <flow id="4_2" begin="0" end="3600" vehsPerHour="8.33" departPos="base" from="ef4" to="eb2" type="myDist" />
   <flow id="4_3" begin="0" end="3600" vehsPerHour="8.33" departPos="base" from="ef4" to="eb3" type="myDist" />
   <flow id="4_5" begin="0" end="3600" vehsPerHour="20.83" departPos="base" from="ef4" to="eb5" type="myDist" />
   <flow id="4_6" begin="0" end="3600" vehsPerHour="16.67" departPos="base" from="ef4" to="eb6" type="myDist" />
   <flow id="4_7" begin="0" end="3600" vehsPerHour="16.67" departPos="base" from="ef4" to="eb7" type="myDist" />
   <flow id="4_8" begin="0" end="3600" vehsPerHour="29.167" departPos="base" from="ef4" to="eb8" type="myDist" />
   <flow id="4_9" begin="0" end="3600" vehsPerHour="29.167" departPos="base" from="ef4" to="eb9" type="myDist" />
   <flow id="4_10" begin="0" end="3600" vehsPerHour="50" departPos="base" from="ef4" to="eb10" type="myDist" />
   <flow id="4_11" begin="0" end="3600" vehsPerHour="58.33" departPos="base" from="ef4" to="eb11" type="myDist" />
   <flow id="4_12" begin="0" end="3600" vehsPerHour="25" departPos="base" from="ef4" to="eb12" type="myDist" />
   <flow id="4_13" begin="0" end="3600" vehsPerHour="25" departPos="base" from="ef4" to="eb13" type="myDist" />
   <flow id="4_14" begin="0" end="3600" vehsPerHour="20.83" departPos="base" from="ef4" to="eb14" type="myDist" />
   <flow id="4_15" begin="0" end="3600" vehsPerHour="20.83" departPos="base" from="ef4" to="eb15" type="myDist" />
   <flow id="4_16" begin="0" end="3600" vehsPerHour="33.33" departPos="base" from="ef4" to="eb16" type="myDist" />
   <flow id="4_17" begin="0" end="3600" vehsPerHour="20.83" departPos="base" from="ef4" to="eb17" type="myDist" />
   <flow id="4_18" begin="0" end="3600" vehsPerHour="4.167" departPos="base" from="ef4" to="eb18" type="myDist" />
   <flow id="4_19" begin="0" end="3600" vehsPerHour="8.33" departPos="base" from="ef4" to="eb19" type="myDist" />
   <flow id="4_20" begin="0" end="3600" vehsPerHour="12.5" departPos="base" from="ef4" to="eb20" type="myDist" />
   <flow id="4_21" begin="0" end="3600" vehsPerHour="8.33" departPos="base" from="ef4" to="eb21" type="myDist" />
   <flow id="4_22" begin="0" end="3600" vehsPerHour="16.67" departPos="base" from="ef4" to="eb22" type="myDist" />
   <flow id="4_23" begin="0" end="3600" vehsPerHour="20.83" departPos="base" from="ef4" to="eb23" type="myDist" />
   <flow id="4_24" begin="0" end="3600" vehsPerHour="8.33" departPos="base" from="ef4" to="eb24" type="myDist" />
   
   <flow id="5_1" begin="0" end="3600" vehsPerHour="8.33" departPos="base" from="ef5" to="eb1" type="myDist" />
   <flow id="5_2" begin="0" end="3600" vehsPerHour="4.167" departPos="base" from="ef5" to="eb2" type="myDist" />
   <flow id="5_3" begin="0" end="3600" vehsPerHour="4.167" departPos="base" from="ef5" to="eb3" type="myDist" />
   <flow id="5_4" begin="0" end="3600" vehsPerHour="20.83" departPos="base" from="ef5" to="eb4" type="myDist" />
   <flow id="5_6" begin="0" end="3600" vehsPerHour="8.33" departPos="base" from="ef5" to="eb6" type="myDist" />
   <flow id="5_7" begin="0" end="3600" vehsPerHour="8.33" departPos="base" from="ef5" to="eb7" type="myDist" />
   <flow id="5_8" begin="0" end="3600" vehsPerHour="20.83" departPos="base" from="ef5" to="eb8" type="myDist" />
   <flow id="5_9" begin="0" end="3600" vehsPerHour="33.33" departPos="base" from="ef5" to="eb9" type="myDist" />
   <flow id="5_10" begin="0" end="3600" vehsPerHour="41.67" departPos="base" from="ef5" to="eb10" type="myDist" />
   <flow id="5_11" begin="0" end="3600" vehsPerHour="20.83" departPos="base" from="ef5" to="eb11" type="myDist" />
   <flow id="5_12" begin="0" end="3600" vehsPerHour="8.33" departPos="base" from="ef5" to="eb12" type="myDist" />
   <flow id="5_13" begin="0" end="3600" vehsPerHour="8.33" departPos="base" from="ef5" to="eb13" type="myDist" />
   <flow id="5_14" begin="0" end="3600" vehsPerHour="4.167" departPos="base" from="ef5" to="eb14" type="myDist" />
   <flow id="5_15" begin="0" end="3600" vehsPerHour="8.33" departPos="base" from="ef5" to="eb15" type="myDist" />
   <flow id="5_16" begin="0" end="3600" vehsPerHour="20.83" departPos="base" from="ef5" to="eb16" type="myDist" />
   <flow id="5_17" begin="0" end="3600" vehsPerHour="8.33" departPos="base" from="ef5" to="eb17" type="myDist" />
   <flow id="5_19" begin="0" end="3600" vehsPerHour="4.167" departPos="base" from="ef5" to="eb19" type="myDist" />
   <flow id="5_20" begin="0" end="3600" vehsPerHour="4.167" departPos="base" from="ef5" to="eb20" type="myDist" />
   <flow id="5_21" begin="0" end="3600" vehsPerHour="4.167" departPos="base" from="ef5" to="eb21" type="myDist" />
   <flow id="5_22" begin="0" end="3600" vehsPerHour="8.33" departPos="base" from="ef5" to="eb22" type="myDist" />
   <flow id="5_23" begin="0" end="3600" vehsPerHour="4.167" departPos="base" from="ef5" to="eb23" type="myDist" />
   
   <flow id="6_1" begin="0" end="3600" vehsPerHour="12.5" departPos="base" from="ef6" to="eb1" type="myDist" />
   <flow id="6_2" begin="0" end="3600" vehsPerHour="16.67" departPos="base" from="ef6" to="eb2" type="myDist" />
   <flow id="6_3" begin="0" end="3600" vehsPerHour="12.5" departPos="base" from="ef6" to="eb3" type="myDist" />
   <flow id="6_4" begin="0" end="3600" vehsPerHour="16.67" departPos="base" from="ef6" to="eb4" type="myDist" />
   <flow id="6_5" begin="0" end="3600" vehsPerHour="8.33" departPos="base" from="ef6" to="eb5" type="myDist" />
   <flow id="6_7" begin="0" end="3600" vehsPerHour="16.67" departPos="base" from="ef6" to="eb7" type="myDist" />
   <flow id="6_8" begin="0" end="3600" vehsPerHour="33.33" departPos="base" from="ef6" to="eb8" type="myDist" />
   <flow id="6_9" begin="0" end="3600" vehsPerHour="16.67" departPos="base" from="ef6" to="eb9" type="myDist" />
   <flow id="6_10" begin="0" end="3600" vehsPerHour="33.33" departPos="base" from="ef6" to="eb10" type="myDist" />
   <flow id="6_11" begin="0" end="3600" vehsPerHour="16.67" departPos="base" from="ef6" to="eb11" type="myDist" />
   <flow id="6_12" begin="0" end="3600" vehsPerHour="8.33" departPos="base" from="ef6" to="eb12" type="myDist" />
   <flow id="6_13" begin="0" end="3600" vehsPerHour="8.33" departPos="base" from="ef6" to="eb13" type="myDist" />
   <flow id="6_14" begin="0" end="3600" vehsPerHour="4.167" departPos="base" from="ef6" to="eb14" type="myDist" />
   <flow id="6_15" begin="0" end="3600" vehsPerHour="8.33" departPos="base" from="ef6" to="eb15" type="myDist" />
   <flow id="6_16" begin="0" end="3600" vehsPerHour="37.5" departPos="base" from="ef6" to="eb16" type="myDist" />
   <flow id="6_17" begin="0" end="3600" vehsPerHour="20.83" departPos="base" from="ef6" to="eb17" type="myDist" />
   <flow id="6_18" begin="0" end="3600" vehsPerHour="4.167" departPos="base" from="ef6" to="eb18" type="myDist" />
   <flow id="6_19" begin="0" end="3600" vehsPerHour="8.33" departPos="base" from="ef6" to="eb19" type="myDist" />
   <flow id="6_20" begin="0" end="3600" vehsPerHour="12.5" departPos="base" from="ef6" to="eb20" type="myDist" />
   <flow id="6_21" begin="0" end="3600" vehsPerHour="4.167" departPos="base" from="ef6" to="eb21" type="myDist" />
   <flow id="6_22" begin="0" end="3600" vehsPerHour="8.33" departPos="base" from="ef6" to="eb22" type="myDist" />
   <flow id="6_23" begin="0" end="3600" vehsPerHour="4.167" departPos="base" from="ef6" to="eb23" type="myDist" />
   <flow id="6_24" begin="0" end="3600" vehsPerHour="4.167" departPos="base" from="ef6" to="eb24" type="myDist" />
   
   <flow id="7_1" begin="0" end="3600" vehsPerHour="20.83" departPos="base" from="ef7" to="eb1" type="myDist" />
   <flow id="7_2" begin="0" end="3600" vehsPerHour="8.33" departPos="base" from="ef7" to="eb2" type="myDist" />
   <flow id="7_3" begin="0" end="3600" vehsPerHour="4.167" departPos="base" from="ef7" to="eb3" type="myDist" />
   <flow id="7_4" begin="0" end="3600" vehsPerHour="16.67" departPos="base" from="ef7" to="eb4" type="myDist" />
   <flow id="7_5" begin="0" end="3600" vehsPerHour="8.33" departPos="base" from="ef7" to="eb5" type="myDist" />
   <flow id="7_6" begin="0" end="3600" vehsPerHour="16.67" departPos="base" from="ef7" to="eb6" type="myDist" />
   <flow id="7_8" begin="0" end="3600" vehsPerHour="41.67" departPos="base" from="ef7" to="eb8" type="myDist" />
   <flow id="7_9" begin="0" end="3600" vehsPerHour="25" departPos="base" from="ef7" to="eb9" type="myDist" />
   <flow id="7_10" begin="0" end="3600" vehsPerHour="79.167" departPos="base" from="ef7" to="eb10" type="myDist" />
   <flow id="7_11" begin="0" end="3600" vehsPerHour="20.83" departPos="base" from="ef7" to="eb11" type="myDist" />
   <flow id="7_12" begin="0" end="3600" vehsPerHour="29.167" departPos="base" from="ef7" to="eb12" type="myDist" />
   <flow id="7_13" begin="0" end="3600" vehsPerHour="16.67" departPos="base" from="ef7" to="eb13" type="myDist" />
   <flow id="7_14" begin="0" end="3600" vehsPerHour="8.33" departPos="base" from="ef7" to="eb14" type="myDist" />
   <flow id="7_15" begin="0" end="3600" vehsPerHour="20.83" departPos="base" from="ef7" to="eb15" type="myDist" />
   <flow id="7_16" begin="0" end="3600" vehsPerHour="58.33" departPos="base" from="ef7" to="eb16" type="myDist" />
   <flow id="7_17" begin="0" end="3600" vehsPerHour="41.67" departPos="base" from="ef7" to="eb17" type="myDist" />
   <flow id="7_18" begin="0" end="3600" vehsPerHour="8.33" departPos="base" from="ef7" to="eb18" type="myDist" />
   <flow id="7_19" begin="0" end="3600" vehsPerHour="16.67" departPos="base" from="ef7" to="eb19" type="myDist" />
   <flow id="7_20" begin="0" end="3600" vehsPerHour="20.83" departPos="base" from="ef7" to="eb20" type="myDist" />
   <flow id="7_21" begin="0" end="3600" vehsPerHour="8.33" departPos="base" from="ef7" to="eb21" type="myDist" />
   <flow id="7_22" begin="0" end="3600" vehsPerHour="20.83" departPos="base" from="ef7" to="eb22" type="myDist" />
   <flow id="7_23" begin="0" end="3600" vehsPerHour="8.33" departPos="base" from="ef7" to="eb23" type="myDist" />
   <flow id="7_24" begin="0" end="3600" vehsPerHour="4.167" departPos="base" from="ef7" to="eb24" type="myDist" />
   
   <flow id="8_1" begin="0" end="3600" vehsPerHour="33.33" departPos="base" from="ef8" to="eb1" type="myDist" />
   <flow id="8_2" begin="0" end="3600" vehsPerHour="16.67" departPos="base" from="ef8" to="eb2" type="myDist" />
   <flow id="8_3" begin="0" end="3600" vehsPerHour="8.33" departPos="base" from="ef8" to="eb3" type="myDist" />
   <flow id="8_4" begin="0" end="3600" vehsPerHour="29.167" departPos="base" from="ef8" to="eb4" type="myDist" />
   <flow id="8_5" begin="0" end="3600" vehsPerHour="20.83" departPos="base" from="ef8" to="eb5" type="myDist" />
   <flow id="8_6" begin="0" end="3600" vehsPerHour="33.33" departPos="base" from="ef8" to="eb6" type="myDist" />
   <flow id="8_7" begin="0" end="3600" vehsPerHour="41.67" departPos="base" from="ef8" to="eb7" type="myDist" />
   <flow id="8_9" begin="0" end="3600" vehsPerHour="33.33" departPos="base" from="ef8" to="eb9" type="myDist" />
   <flow id="8_10" begin="0" end="3600" vehsPerHour="66.67" departPos="base" from="ef8" to="eb10" type="myDist" />
   <flow id="8_11" begin="0" end="3600" vehsPerHour="33.33" departPos="base" from="ef8" to="eb11" type="myDist" />
   <flow id="8_12" begin="0" end="3600" vehsPerHour="25" departPos="base" from="ef8" to="eb12" type="myDist" />
   <flow id="8_13" begin="0" end="3600" vehsPerHour="25" departPos="base" from="ef8" to="eb13" type="myDist" />
   <flow id="8_14" begin="0" end="3600" vehsPerHour="16.67" departPos="base" from="ef8" to="eb14" type="myDist" />
   <flow id="8_15" begin="0" end="3600" vehsPerHour="25" departPos="base" from="ef8" to="eb15" type="myDist" />
   <flow id="8_16" begin="0" end="3600" vehsPerHour="91.67" departPos="base" from="ef8" to="eb16" type="myDist" />
   <flow id="8_17" begin="0" end="3600" vehsPerHour="58.33" departPos="base" from="ef8" to="eb17" type="myDist" />
   <flow id="8_18" begin="0" end="3600" vehsPerHour="12.5" departPos="base" from="ef8" to="eb18" type="myDist" />
   <flow id="8_19" begin="0" end="3600" vehsPerHour="29.167" departPos="base" from="ef8" to="eb19" type="myDist" />
   <flow id="8_20" begin="0" end="3600" vehsPerHour="37.5" departPos="base" from="ef8" to="eb20" type="myDist" />
   <flow id="8_21" begin="0" end="3600" vehsPerHour="16.67" departPos="base" from="ef8" to="eb21" type="myDist" />
   <flow id="8_22" begin="0" end="3600" vehsPerHour="20.83" departPos="base" from="ef8" to="eb22" type="myDist" />
   <flow id="8_23" begin="0" end="3600" vehsPerHour="12.5" departPos="base" from="ef8" to="eb23" type="myDist" />
   <flow id="8_24" begin="0" end="3600" vehsPerHour="8.33" departPos="base" from="ef8" to="eb24" type="myDist" />
   
   <flow id="9_1" begin="0" end="3600" vehsPerHour="20.83" departPos="base" from="ef9" to="eb1" type="myDist" />
   <flow id="9_2" begin="0" end="3600" vehsPerHour="8.33" departPos="base" from="ef9" to="eb2" type="myDist" />
   <flow id="9_3" begin="0" end="3600" vehsPerHour="4.167" departPos="base" from="ef9" to="eb3" type="myDist" />
   <flow id="9_4" begin="0" end="3600" vehsPerHour="29.167" departPos="base" from="ef9" to="eb4" type="myDist" />
   <flow id="9_5" begin="0" end="3600" vehsPerHour="33.33" departPos="base" from="ef9" to="eb5" type="myDist" />
   <flow id="9_6" begin="0" end="3600" vehsPerHour="16.67" departPos="base" from="ef9" to="eb6" type="myDist" />
   <flow id="9_7" begin="0" end="3600" vehsPerHour="25" departPos="base" from="ef9" to="eb7" type="myDist" />
   <flow id="9_8" begin="0" end="3600" vehsPerHour="33.33" departPos="base" from="ef9" to="eb8" type="myDist" />
   <flow id="9_10" begin="0" end="3600" vehsPerHour="116.67" departPos="base" from="ef9" to="eb10" type="myDist" />
   <flow id="9_11" begin="0" end="3600" vehsPerHour="58.33" departPos="base" from="ef9" to="eb11" type="myDist" />
   <flow id="9_12" begin="0" end="3600" vehsPerHour="25" departPos="base" from="ef9" to="eb12" type="myDist" />
   <flow id="9_13" begin="0" end="3600" vehsPerHour="25" departPos="base" from="ef9" to="eb13" type="myDist" />
   <flow id="9_14" begin="0" end="3600" vehsPerHour="25" departPos="base" from="ef9" to="eb14" type="myDist" />
   <flow id="9_15" begin="0" end="3600" vehsPerHour="37.5" departPos="base" from="ef9" to="eb15" type="myDist" />
   <flow id="9_16" begin="0" end="3600" vehsPerHour="58.33" departPos="base" from="ef9" to="eb16" type="myDist" />
   <flow id="9_17" begin="0" end="3600" vehsPerHour="37.5" departPos="base" from="ef9" to="eb17" type="myDist" />
   <flow id="9_18" begin="0" end="3600" vehsPerHour="8.33" departPos="base" from="ef9" to="eb18" type="myDist" />
   <flow id="9_19" begin="0" end="3600" vehsPerHour="16.67" departPos="base" from="ef9" to="eb19" type="myDist" />
   <flow id="9_20" begin="0" end="3600" vehsPerHour="25" departPos="base" from="ef9" to="eb20" type="myDist" />
   <flow id="9_21" begin="0" end="3600" vehsPerHour="12.5" departPos="base" from="ef9" to="eb21" type="myDist" />
   <flow id="9_22" begin="0" end="3600" vehsPerHour="29.167" departPos="base" from="ef9" to="eb22" type="myDist" />
   <flow id="9_23" begin="0" end="3600" vehsPerHour="20.83" departPos="base" from="ef9" to="eb23" type="myDist" />
   <flow id="9_24" begin="0" end="3600" vehsPerHour="8.33" departPos="base" from="ef9" to="eb24" type="myDist" />
   
   <flow id="10_1" begin="0" end="3600" vehsPerHour="54.167" departPos="base" from="ef10" to="eb1" type="myDist" />
   <flow id="10_2" begin="0" end="3600" vehsPerHour="25" departPos="base" from="ef10" to="eb2" type="myDist" />
   <flow id="10_3" begin="0" end="3600" vehsPerHour="12.5" departPos="base" from="ef10" to="eb3" type="myDist" />
   <flow id="10_4" begin="0" end="3600" vehsPerHour="50" departPos="base" from="ef10" to="eb4" type="myDist" />
   <flow id="10_5" begin="0" end="3600" vehsPerHour="41.67" departPos="base" from="ef10" to="eb5" type="myDist" />
   <flow id="10_6" begin="0" end="3600" vehsPerHour="33.33" departPos="base" from="ef10" to="eb6" type="myDist" />
   <flow id="10_7" begin="0" end="3600" vehsPerHour="79.167" departPos="base" from="ef10" to="eb7" type="myDist" />
   <flow id="10_8" begin="0" end="3600" vehsPerHour="66.67" departPos="base" from="ef10" to="eb8" type="myDist" />
   <flow id="10_9" begin="0" end="3600" vehsPerHour="116.67" departPos="base" from="ef10" to="eb9" type="myDist" />
   <flow id="10_11" begin="0" end="3600" vehsPerHour="166.67" departPos="base" from="ef10" to="eb11" type="myDist" />
   <flow id="10_12" begin="0" end="3600" vehsPerHour="83.33" departPos="base" from="ef10" to="eb12" type="myDist" />
   <flow id="10_13" begin="0" end="3600" vehsPerHour="79.167" departPos="base" from="ef10" to="eb13" type="myDist" />
   <flow id="10_14" begin="0" end="3600" vehsPerHour="87.5" departPos="base" from="ef10" to="eb14" type="myDist" />
   <flow id="10_15" begin="0" end="3600" vehsPerHour="166.67" departPos="base" from="ef10" to="eb15" type="myDist" />
   <flow id="10_16" begin="0" end="3600" vehsPerHour="183.33" departPos="base" from="ef10" to="eb16" type="myDist" />
   <flow id="10_17" begin="0" end="3600" vehsPerHour="162.5" departPos="base" from="ef10" to="eb17" type="myDist" />
   <flow id="10_18" begin="0" end="3600" vehsPerHour="29.167" departPos="base" from="ef10" to="eb18" type="myDist" />
   <flow id="10_19" begin="0" end="3600" vehsPerHour="75" departPos="base" from="ef10" to="eb19" type="myDist" />
   <flow id="10_20" begin="0" end="3600" vehsPerHour="104.167" departPos="base" from="ef10" to="eb20" type="myDist" />
   <flow id="10_21" begin="0" end="3600" vehsPerHour="50" departPos="base" from="ef10" to="eb21" type="myDist" />
   <flow id="10_22" begin="0" end="3600" vehsPerHour="108.33" departPos="base" from="ef10" to="eb22" type="myDist" />
   <flow id="10_23" begin="0" end="3600" vehsPerHour="75" departPos="base" from="ef10" to="eb23" type="myDist" />
   <flow id="10_24" begin="0" end="3600" vehsPerHour="33.33" departPos="base" from="ef10" to="eb24" type="myDist" />
   
   <flow id="11_1" begin="0" end="3600" vehsPerHour="20.83" departPos="base" from="ef11" to="eb1" type="myDist" />
   <flow id="11_2" begin="0" end="3600" vehsPerHour="8.33" departPos="base" from="ef11" to="eb2" type="myDist" />
   <flow id="11_3" begin="0" end="3600" vehsPerHour="12.5" departPos="base" from="ef11" to="eb3" type="myDist" />
   <flow id="11_4" begin="0" end="3600" vehsPerHour="1500" departPos="base" from="ef11" to="eb4" type="myDist" />
   <flow id="11_5" begin="0" end="3600" vehsPerHour="20.83" departPos="base" from="ef11" to="eb5" type="myDist" />
   <flow id="11_6" begin="0" end="3600" vehsPerHour="16.67" departPos="base" from="ef11" to="eb6" type="myDist" />
   <flow id="11_7" begin="0" end="3600" vehsPerHour="20.83" departPos="base" from="ef11" to="eb7" type="myDist" />
   <flow id="11_8" begin="0" end="3600" vehsPerHour="33.33" departPos="base" from="ef11" to="eb8" type="myDist" />
   <flow id="11_9" begin="0" end="3600" vehsPerHour="58.33" departPos="base" from="ef11" to="eb9" type="myDist" />
   <flow id="11_10" begin="0" end="3600" vehsPerHour="162.5" departPos="base" from="ef11" to="eb10" type="myDist" />
   <flow id="11_12" begin="0" end="3600" vehsPerHour="58.33" departPos="base" from="ef11" to="eb12" type="myDist" />
   <flow id="11_13" begin="0" end="3600" vehsPerHour="41.67" departPos="base" from="ef11" to="eb13" type="myDist" />
   <flow id="11_14" begin="0" end="3600" vehsPerHour="66.67" departPos="base" from="ef11" to="eb14" type="myDist" />
   <flow id="11_15" begin="0" end="3600" vehsPerHour="58.33" departPos="base" from="ef11" to="eb15" type="myDist" />
   <flow id="11_16" begin="0" end="3600" vehsPerHour="58.33" departPos="base" from="ef11" to="eb16" type="myDist" />
   <flow id="11_17" begin="0" end="3600" vehsPerHour="41.67" departPos="base" from="ef11" to="eb17" type="myDist" />
   <flow id="11_18" begin="0" end="3600" vehsPerHour="4.167" departPos="base" from="ef11" to="eb18" type="myDist" />
   <flow id="11_19" begin="0" end="3600" vehsPerHour="16.67" departPos="base" from="ef11" to="eb19" type="myDist" />
   <flow id="11_20" begin="0" end="3600" vehsPerHour="25" departPos="base" from="ef11" to="eb20" type="myDist" />
   <flow id="11_21" begin="0" end="3600" vehsPerHour="16.67" departPos="base" from="ef11" to="eb21" type="myDist" />
   <flow id="11_22" begin="0" end="3600" vehsPerHour="45.83" departPos="base" from="ef11" to="eb22" type="myDist" />
   <flow id="11_23" begin="0" end="3600" vehsPerHour="54.167" departPos="base" from="ef11" to="eb23" type="myDist" />
   <flow id="11_24" begin="0" end="3600" vehsPerHour="25" departPos="base" from="ef11" to="eb24" type="myDist" />
   
   <flow id="12_1" begin="0" end="3600" vehsPerHour="8.33" departPos="base" from="ef12" to="eb1" type="myDist" />
   <flow id="12_2" begin="0" end="3600" vehsPerHour="4.167" departPos="base" from="ef12" to="eb2" type="myDist" />
   <flow id="12_3" begin="0" end="3600" vehsPerHour="8.33" departPos="base" from="ef12" to="eb3" type="myDist" />
   <flow id="12_4" begin="0" end="3600" vehsPerHour="25" departPos="base" from="ef12" to="eb4" type="myDist" />
   <flow id="12_5" begin="0" end="3600" vehsPerHour="8.33" departPos="base" from="ef12" to="eb5" type="myDist" />
   <flow id="12_6" begin="0" end="3600" vehsPerHour="8.33" departPos="base" from="ef12" to="eb6" type="myDist" />
   <flow id="12_7" begin="0" end="3600" vehsPerHour="29.167" departPos="base" from="ef12" to="eb7" type="myDist" />
   <flow id="12_8" begin="0" end="3600" vehsPerHour="25" departPos="base" from="ef12" to="eb8" type="myDist" />
   <flow id="12_9" begin="0" end="3600" vehsPerHour="25" departPos="base" from="ef12" to="eb9" type="myDist" />
   <flow id="12_10" begin="0" end="3600" vehsPerHour="83.33" departPos="base" from="ef12" to="eb10" type="myDist" />
   <flow id="12_11" begin="0" end="3600" vehsPerHour="58.33" departPos="base" from="ef12" to="eb11" type="myDist" />