<edges>

   <edge id="1" from="1" to="2" priority="2" numLanes="2" length="6000" speed="16.67"/>
   <edge id="2" from="1" to="3" priority="2" numLanes="2" length="4000" speed="16.67"/>
   <edge id="3" from="2" to="1" priority="2" numLanes="2" length="6000" speed="16.67"/>
   <edge id="4" from="2" to="6" priority="2" numLanes="2" length="5000" speed="16.67"/>
   <edge id="5" from="3" to="1" priority="2" numLanes="2" length="4000" speed="16.67"/>
   <edge id="6" from="3" to="4" priority="2" numLanes="2" length="4000" speed="16.67"/>
   <edge id="7" from="3" to="12" priority="2" numLanes="2" length="4000" speed="16.67"/>
   <edge id="8" from="4" to="3" priority="2" numLanes="2" length="4000" speed="16.67"/>
   <edge id="9" from="4" to="5" priority="2" numLanes="2" length="2000" speed="16.67"/>
   <edge id="10" from="4" to="11" priority="2" numLanes="2" length="6000" speed="16.67"/>
   <edge id="11" from="5" to="4" priority="2" numLanes="2" length="2000" speed="16.67"/>
   <edge id="12" from="5" to="6" priority="2" numLanes="2" length="4000" speed="16.67"/>
   <edge id="13" from="5" to="9" priority="2" numLanes="2" length="5000" speed="16.67"/>
   <edge id="14" from="6" to="2" priority="2" numLanes="2" length="5000" speed="16.67"/>
   <edge id="15" from="6" to="5" priority="2" numLanes="2" length="4000" speed="16.67"/>
   <edge id="16" from="6" to="8" priority="2" numLanes="2" length="2000" speed="16.67"/>
   <edge id="17" from="7" to="8" priority="2" numLanes="2" length="3000" speed="16.67"/>
   <edge id="18" from="7" to="18" priority="2" numLanes="2" length="2000" speed="16.67"/>
   <edge id="19" from="8" to="6" priority="2" numLanes="2" length="2000" speed="16.67"/>
   <edge id="20" from="8" to="7" priority="2" numLanes="2" length="3000" speed="16.67"/>
   <edge id="21" from="8" to="9" priority="2" numLanes="2" length="10000" speed="16.67"/>
   <edge id="22" from="8" to="16" priority="2" numLanes="2" length="5000" speed="16.67"/>
   <edge id="23" from="9" to="5" priority="2" numLanes="2" length="5000" speed="16.67"/>
   <edge id="24" from="9" to="8" priority="2" numLanes="2" length="10000" speed="16.67"/>
   <edge id="25" from="9" to="10" priority="2" numLanes="2" length="3000" speed="16.67"/>
   <edge id="26" from="10" to="9" priority="2" numLanes="2" length="3000" speed="16.67"/>
   <edge id="27" from="10" to="11" priority="2" numLanes="2" length="5000" speed="16.67"/>
   <edge id="28" from="10" to="15" priority="2" numLanes="2" length="6000" speed="16.67"/>
   <edge id="29" from="10" to="16" priority="2" numLanes="2" length="4000" speed="16.67"/>
   <edge id="30" from="10" to="17" priority="2" numLanes="2" length="8000" speed="16.67"/>
   <edge id="31" from="11" to="4" priority="2" numLanes="2" length="6000" speed="16.67"/>
   <edge id="32" from="11" to="10" priority="2" numLanes="2" length="5000" speed="16.67"/>
   <edge id="33" from="11" to="12" priority="2" numLanes="2" length="6000" speed="16.67"/>
   <edge id="34" from="11" to="14" priority="2" numLanes="2" length="4000" speed="16.67"/>
   <edge id="35" from="12" to="3" priority="2" numLanes="2" length="4000" speed="16.67"/>
   <edge id="36" from="12" to="11" priority="2" numLanes="2" length="6000" speed="16.67"/>
   <edge id="37" from="12" to="13" priority="2" numLanes="2" length="3000" speed="16.67"/>
   <edge id="38" from="13" to="12" priority="2" numLanes="2" length="3000" speed="16.67"/>
   <edge id="39" from="13" to="24" priority="2" numLanes="2" length="4000" speed="16.67"/>
   <edge id="40" from="14" to="11" priority="2" numLanes="2" length="4000" speed="16.67"/>
   <edge id="41" from="14" to="15" priority="2" numLanes="2" length="5000" speed="16.67"/>
   <edge id="42" from="14" to="23" priority="2" numLanes="2" length="4000" speed="16.67"/>
   <edge id="43" from="15" to="10" priority="2" numLanes="2" length="6000" speed="16.67"/>
   <edge id="44" from="15" to="14" priority="2" numLanes="2" length="5000" speed="16.67"/>
   <edge id="45" from="15" to="19" priority="2" numLanes="2" length="3000" speed="16.67"/>
   <edge id="46" from="15" to="22" priority="2" numLanes="2" length="3000" speed="16.67"/>
   <edge id="47" from="16" to="8" priority="2" numLanes="2" length="5000" speed="16.67"/>
   <edge id="48" from="16" to="10" priority="2" numLanes="2" length="4000" speed="16.67"/>
   <edge id="49" from="16" to="17" priority="2" numLanes="2" length="2000" speed="16.67"/>
   <edge id="50" from="16" to="18" priority="2" numLanes="2" length="3000" speed="16.67"/>
   <edge id="51" from="17" to="10" priority="2" numLanes="2" length="8000" speed="16.67"/>
   <edge id="52" from="17" to="16" priority="2" numLanes="2" length="2000" speed="16.67"/>
   <edge id="53" from="17" to="19" priority="2" numLanes="2" length="2000" speed="16.67"/>
   <edge id="54" from="18" to="7" priority="2" numLanes="2" length="2000" speed="16.67"/>
   <edge id="55" from="18" to="16" priority="2" numLanes="2" length="3000" speed="16.67"/>
   <edge id="56" from="18" to="20" priority="2" numLanes="2" length="4000" speed="16.67"/>
   <edge id="57" from="19" to="15" priority="2" numLanes="2" length="3000" speed="16.67"/>
   <edge id="58" from="19" to="17" priority="2" numLanes="2" length="2000" speed="16.67"/>
   <edge id="59" from="19" to="20" priority="2" numLanes="2" length="4000" speed="16.67"/>
   <edge id="60" from="20" to="18" priority="2" numLanes="2" length="4000" speed="16.67"/>
   <edge id="61" from="20" to="19" priority="2" numLanes="2" length="4000" speed="16.67"/>
   <edge id="62" from="20" to="21" priority="2" numLanes="2" length="6000" speed="16.67"/>
   <edge id="63" from="20" to="22" priority="2" numLanes="2" length="5000" speed="16.67"/>
   <edge id="64" from="21" to="20" priority="2" numLanes="2" length="6000" speed="16.67"/>
   <edge id="65" from="21" to="22" priority="2" numLanes="2" length="2000" speed="16.67"/>
   <edge id="66" from="21" to="24" priority="2" numLanes="2" length="3000" speed="16.67"/>
   <edge id="67" from="22" to="15" priority="2" numLanes="2" length="3000" speed="16.67"/>
   <edge id="68" from="22" to="20" priority="2" numLanes="2" length="5000" speed="16.67"/>
   <edge id="69" from="22" to="21" priority="2" numLanes="2" length="2000" speed="16.67"/>
   <edge id="70" from="22" to="23" priority="2" numLanes="2" length="4000" speed="16.67"/>
   <edge id="71" from="23" to="14" priority="2" numLanes="2" length="4000" speed="16.67"/>
   <edge id="72" from="23" to="22" priority="2" numLanes="2" length="4000" speed="16.67"/>
   <edge id="73" from="23" to="24" priority="2" numLanes="2" length="2000" speed="16.67"/>
   <edge id="74" from="24" to="13" priority="2" numLanes="2" length="4000" speed="16.67"/>
   <edge id="75" from="24" to="21" priority="2" numLanes="2" length="3000" speed="16.67"/>
   <edge id="76" from="24" to="23" priority="2" numLanes="2" length="2000" speed="16.67"/>
   
   <edge id="ef1" from="c1" to="1" priority="2" numLanes="2" length="200" speed="16.67"/>
   <edge id="eb1" from="1" to="c1" priority="2" numLanes="2" length="200" speed="16.67"/>
   <edge id="ef2" from="c2" to="2" priority="2" numLanes="2" length="200" speed="16.67"/>
   <edge id="eb2" from="2" to="c2" priority="2" numLanes="2" length="200" speed="16.67"/>
   <edge id="ef3" from="c3" to="3" priority="2" numLanes="2" length="200" speed="16.67"/>
   <edge id="eb3" from="3" to="c3" priority="2" numLanes="2" length="200" speed="16.67"/>
   <edge id="ef4" from="c4" to="4" priority="2" numLanes="2" length="200" speed="16.67"/>
   <edge id="eb4" from="4" to="c4" priority="2" numLanes="2" length="200" speed="16.67"/>
   <edge id="ef5" from="c5" to="5" priority="2" numLanes="2" length="200" speed="16.67"/>
   <edge id="eb5" from="5" to="c5" priority="2" numLanes="2" length="200" speed="16.67"/>
   <edge id="ef6" from="c6" to="6" priority="2" numLanes="2" length="200" speed="16.67"/>
   <edge id="eb6" from="6" to="c6" priority="2" numLanes="2" length="200" speed="16.67"/>
   <edge id="ef7" from="c7" to="7" priority="2" numLanes="2" length="200" speed="16.67"/>
   <edge id="eb7" from="7" to="c7" priority="2" numLanes="2" length="200" speed="16.67"/>
   <edge id="ef8" from="c8" to="8" priority="2" numLanes="2" length="200" speed="16.67"/>
   <edge id="eb8" from="8" to="c8" priority="2" numLanes="2" length="200" speed="16.67"/>
   <edge id="ef9" from="c9" to="9" priority="2" numLanes="2" length="200" speed="16.67"/>
   <edge id="eb9" from="9" to="c9" priority="2" numLanes="2" length="200" speed="16.67"/>
   <edge id="ef10" from="c10" to="10" priority="2" numLanes="2" length="200" speed="16.67"/>
   <edge id="eb10" from="10" to="c10" priority="2" numLanes="2" length="200" speed="16.67"/>
   <edge id="ef11" from="c11" to="11" priority="2" numLanes="2" length="200" speed="16.67"/>
   <edge id="eb11" from="11" to="c11" priority="2" numLanes="2" length="200" speed="16.67"/>
   <edge id="ef12" from="c12" to="12" priority="2" numLanes="2" length="200" speed="16.67"/>
   <edge id="eb12" from="12" to="c12" priority="2" numLanes="2" length="200" speed="16.67"/>
   <edge id="ef13" from="c13" to="13" priority="2" numLanes="2" length="200" speed="16.67"/>
   <edge id="eb13" from="13" to="c13" priority="2" numLanes="2" length="200" speed="16.67"/>
   <edge id="ef14" from="c14" to="14" priority="2" numLanes="2" length="200" speed="16.67"/>
   <edge id="eb14" from="14" to="c14" priority="2" numLanes="2" length="200" speed="16.67"/>
   <edge id="ef15" from="c15" to="15" priority="2" numLanes="2" length="200" speed="16.67"/>
   <edge id="eb15" from="15" to="c15" priority="2" numLanes="2" length="200" speed="16.67"/>
   <edge id="ef16" from="c16" to="16" priority="2" numLanes="2" length="200" speed="16.67"/>
   <edge id="eb16" from="16" to="c16" priority="2" numLanes="2" length="200" speed="16.67"/>
   <edge id="ef17" from="c17" to="17" priority="2" numLanes="2" length="200" speed="16.67"/>
   <edge id="eb17" from="17" to="c17" priority="2" numLanes="2" length="200" speed="16.67"/>
   <edge id="ef18" from="c18" to="18" priority="2" numLanes="2" length="200" speed="16.67"/>
   <edge id="eb18" from="18" to="c18" priority="2" numLanes="2" length="200" speed="16.67"/>
   <edge id="ef19" from="c19" to="19" priority="2" numLanes="2" length="200" speed="16.67"/>
   <edge id="eb19" from="19" to="c19" priority="2" numLanes="2" length="200" speed="16.67"/>
   <edge id="ef20" from="c20" to="20" priority="2" numLanes="2" length="200" speed="16.67"/>
   <edge id="eb20" from="20" to="c20" priority="2" numLanes="2" length="200" speed="16.67"/>
   <edge id="ef21" from="c21" to="21" priority="2" numLanes="2" length="200" speed="16.67"/>
   <edge id="eb21" from="21" to="c21" priority="2" numLanes="2" length="200" speed="16.67"/>
   <edge id="ef22" from="c22" to="22" priority="2" numLanes="2" length="200" speed="16.67"/>
   <edge id="eb22" from="22" to="c22" priority="2" numLanes="2" length="200" speed="16.67"/>
   <edge id="ef23" from="c23" to="23" priority="2" numLanes="2" length="200" speed="16.67"/>
   <edge id="eb23" from="23" to="c23" priority="2" numLanes="2" length="200" speed="16.67"/>
   <edge id="ef24" from="c24" to="24" priority="2" numLanes="2" length="200" speed="16.67"/>
   <edge id="eb24" from="24" to="c24" priority="2" numLanes="2" length="200" speed="16.67"/>

</edges>