<nodes> <!-- The opening tag -->

   <node id="1" x="50000" y="510000" type="traffic_light"/>
   <node id="2" x="320000" y="510000" type="traffic_light"/>
   <node id="3" x="50000" y="440000" type="traffic_light"/>
   <node id="4" x="130000" y="440000" type="traffic_light"/>
   <node id="5" x="220000" y="440000" type="traffic_light"/>
   <node id="6" x="320000" y="440000" type="traffic_light"/>
   <node id="7" x="420000" y="380000" type="traffic_light"/>
   <node id="8" x="320000" y="380000" type="allway_stop"/>
   <node id="9" x="220000" y="380000" type="traffic_light"/>
   <node id="10" x="220000" y="320000" type="allway_stop"/>
   <node id="11" x="130000" y="320000" type="allway_stop"/>
   <node id="12" x="50000" y="320000" type="traffic_light"/>
   <node id="13" x="50000" y="50000" type="traffic_light"/>
   <node id="14" x="130000" y="190000" type="traffic_light"/>
   <node id="15" x="220000" y="190000" type="allway_stop"/>
   <node id="16" x="320000" y="320000" type="allway_stop"/>
   <node id="17" x="320000" y="260000" type="traffic_light"/>
   <node id="18" x="420000" y="320000" type="traffic_light"/>
   <node id="19" x="320000" y="190000" type="traffic_light"/>
   <node id="20" x="320000" y="50000" type="allway_stop"/>
   <node id="21" x="220000" y="50000" type="traffic_light"/>
   <node id="22" x="220000" y="130000" type="allway_stop"/>
   <node id="23" x="130000" y="130000" type="traffic_light"/>
   <node id="24" x="130000" y="50000" type="traffic_light"/>
   
   <node id="c1" x="49000" y="510000" type="priority"/>
   <node id="c2" x="321000" y="510000" type="priority"/>
   <node id="c3" x="49000" y="440000" type="priority"/>
   <node id="c4" x="130000" y="441000" type="priority"/>
   <node id="c5" x="220000" y="441000" type="priority"/>
   <node id="c6" x="321000" y="440000" type="priority"/>
   <node id="c7" x="421000" y="380000" type="priority"/>
   <node id="c8" x="321000" y="381000" type="priority"/>
   <node id="c9" x="219000" y="380000" type="priority"/>
   <node id="c10" x="219000" y="321000" type="priority"/>
   <node id="c11" x="129000" y="321000" type="priority"/>
   <node id="c12" x="49000" y="320000" type="priority"/>
   <node id="c13" x="49000" y="50000" type="priority"/>
   <node id="c14" x="129000" y="190000" type="priority"/>
   <node id="c15" x="219000" y="191000" type="priority"/>
   <node id="c16" x="319000" y="321000" type="priority"/>
   <node id="c17" x="321000" y="260000" type="priority"/>
   <node id="c18" x="421000" y="320000" type="priority"/>
   <node id="c19" x="321000" y="190000" type="priority"/>
   <node id="c20" x="320000" y="49000" type="priority"/>
   <node id="c21" x="220000" y="49000" type="priority"/>
   <node id="c22" x="221000" y="130000" type="priority"/>
   <node id="c23" x="129000" y="130000" type="priority"/>
   <node id="c24" x="130000" y="49000" type="priority"/>
         
</nodes> <!-- The closing tag -->